%chk=ethyl_propiolate.chk 
%nprocshared=24 
%mem=12GB 
# ccsd(t)/6-311++g(d,p) sp 

Title Card Required

0 2
 C                  1.29071100   -1.41711900   -1.15666200
 H                  1.65385500   -2.29210800   -1.64625700
 C                  0.93378900   -0.49680300   -0.40077300
 C                  0.35632900    0.87145300   -0.19978800
 O                  0.96833200    1.85049700   -0.50109800
 O                 -0.83071500    0.92536100    0.39070900
 C                 -1.57659300   -0.27491200    0.67466100
 C                 -2.42185800   -0.67070300   -0.51944200
 H                 -0.89626900   -1.06684900    0.98890300
 H                 -2.19746700   -0.00211800    1.52644400
 H                 -3.07536000    0.15200300   -0.81240100
 H                 -1.79484700   -0.94062400   -1.37191100
 H                 -3.03966200   -1.53393400   -0.26367900
 O                  1.36864700   -0.88030900    1.33004900
 H                  2.32358200   -0.72829000    1.29678600

