%chk=ethyl_propiolate.chk 
%nprocshared=24 
%mem=12GB 
# ccsd(t)/6-311++g(d,p) sp 

Title Card Required

0 2
 C                  1.29852700   -1.43481300   -1.14670400
 H                  1.68356300   -2.32211000   -1.59326800
 C                  0.86188200   -0.44852200   -0.61095400
 C                  0.34891000    0.87617400   -0.22119900
 O                  0.97064800    1.86129000   -0.48767100
 O                 -0.82620600    0.92409300    0.39708500
 C                 -1.57312100   -0.27643700    0.67212900
 C                 -2.42320500   -0.66952400   -0.51983300
 H                 -0.88958000   -1.07050700    0.97471400
 H                 -2.19111900   -0.00903800    1.52787700
 H                 -3.07807200    0.15378500   -0.80824900
 H                 -1.80060200   -0.93936000   -1.37467000
 H                 -3.04067900   -1.53243000   -0.26182000
 O                  1.40987900   -0.91338500    1.47389000
 H                  2.35393700   -0.73490400    1.32998600

