%chk=ethyl_propiolate.chk 
%nprocshared=24 
%mem=12GB 
# ccsd(t)/6-311++g(d,p) sp 

Title Card Required

0 2
 C                  1.28799400   -1.41272200   -1.16120800
 H                  1.65413200   -2.29231700   -1.64150900
 C                  0.94681400   -0.50645900   -0.36112900
 C                  0.35724600    0.86995500   -0.19893100
 O                  0.96792800    1.84921800   -0.50262200
 O                 -0.83124200    0.92555700    0.38995000
 C                 -1.57705100   -0.27457500    0.67482100
 C                 -2.42172900   -0.67081400   -0.51941500
 H                 -0.89813900   -1.06692200    0.99075900
 H                 -2.19829700   -0.00130500    1.52620000
 H                 -3.07499200    0.15191500   -0.81282300
 H                 -1.79404400   -0.94064900   -1.37157600
 H                 -3.03963400   -1.53407200   -0.26399100
 O                  1.36190300   -0.87452100    1.30519800
 H                  2.31685000   -0.72547500    1.29115000

