%chk=ethyl_propiolate.chk 
%nprocshared=24 
%mem=12GB 
# ccsd(t)/6-311++g(d,p) sp 

Title Card Required

0 2
 C                  1.28452400   -1.40697500   -1.16557600
 H                  1.65658100   -2.29415500   -1.62935800
 C                  0.95995700   -0.51630200   -0.32202800
 C                  0.35859800    0.86779100   -0.19808300
 O                  0.96742400    1.84780200   -0.50416300
 O                 -0.83179100    0.92571400    0.38917300
 C                 -1.57759100   -0.27411100    0.67493700
 C                 -2.42160700   -0.67094300   -0.51940400
 H                 -0.90044200   -1.06719000    0.99241900
 H                 -2.19927600   -0.00042000    1.52591800
 H                 -3.07460400    0.15182800   -0.81326900
 H                 -1.79310300   -0.94065300   -1.37112800
 H                 -3.03964700   -1.53421600   -0.26432400
 O                  1.35538700   -0.86886800    1.28018700
 H                  2.31015700   -0.72316400    1.28653300

