%chk=ethyl_propiolate.chk 
%nprocshared=24 
%mem=12GB 
# ccsd(t)/6-311++g(d,p) sp 

Title Card Required

0 2
 C                  1.29280800   -1.42052600   -1.15235300
 H                  1.65567600   -2.29370100   -1.64477300
 C                  0.92086900   -0.48733200   -0.44058600
 C                  0.35569300    0.87240100   -0.20091200
 O                  0.96866100    1.85176500   -0.49951800
 O                 -0.83021000    0.92516100    0.39150400
 C                 -1.57619200   -0.27514000    0.67444800
 C                 -2.42199500   -0.67061100   -0.51948500
 H                 -0.89483700   -1.06700200    0.98683000
 H                 -2.19674600   -0.00290600    1.52665900
 H                 -3.07571100    0.15210100   -0.81197400
 H                 -1.79552600   -0.94057900   -1.37215100
 H                 -3.03973600   -1.53379500   -0.26337300
 O                  1.37560800   -0.88620000    1.35492400
 H                  2.33032200   -0.73138300    1.30336500

