%chk=ethyl_propiolate.chk 
%nprocshared=24 
%mem=12GB 
# ccsd(t)/6-311++g(d,p) sp 

Title Card Required

0 2
 C                  1.29458000   -1.42355200   -1.14886200
 H                  1.65970100   -2.29742600   -1.63791500
 C                  0.90785900   -0.47795400   -0.48005300
 C                  0.35507800    0.87294900   -0.20283900
 O                  0.96896900    1.85320700   -0.49774000
 O                 -0.82969300    0.92499400    0.39242800
 C                 -1.57582100   -0.27525700    0.67415600
 C                 -2.42213700   -0.67055500   -0.51954800
 H                 -0.89387600   -1.06739200    0.98460500
 H                 -2.19611400   -0.00368000    1.52681000
 H                 -3.07604200    0.15216800   -0.81161400
 H                 -1.79611700   -0.94064600   -1.37231400
 H                 -3.03985200   -1.53365500   -0.26300900
 O                  1.38280700   -0.89212700    1.38013100
 H                  2.33682200   -0.73426800    1.31065200

