%chk=ethyl_propiolate.chk 
%nprocshared=24 
%mem=12GB 
# ccsd(t)/6-311++g(d,p) sp 

Title Card Required

0 2
 C                 -2.04057300   -1.11962400   -0.85880700
 H                 -2.69789600   -1.85712400   -1.25781500
 C                 -1.27293100   -0.31317200   -0.39596300
 C                 -0.55424600    0.89683400    0.04152800
 O                 -1.15543000    1.78120500    0.57502900
 O                  0.74429800    0.98338400   -0.21795600
 C                  1.51412200   -0.09112100   -0.78851500
 C                  2.60541100   -0.47884000    0.18577100
 H                  0.86870600   -0.93878500   -1.01904700
 H                  1.92725200    0.30339000   -1.71822300
 H                  3.21927600    0.38799900    0.43385500
 H                  2.16649900   -0.87904200    1.09954200
 H                  3.24410200   -1.24292100   -0.26207800
 O                 -0.26193400   -1.56327600    1.07367900
 H                 -1.04386500   -1.67130600    1.63939900

