%chk=ethyl_propiolate.chk 
%nprocshared=24 
%mem=12GB 
# ccsd(t)/6-311++g(d,p) sp 

Title Card Required

0 2
 C                 -2.03947401   -1.11110691   -0.85721128
 H                 -2.70652001   -1.82600191   -1.28159228
 C                 -1.23562001   -0.37043091   -0.32280928
 C                 -0.54861201    0.88914109    0.05214772
 O                 -1.16000301    1.77659909    0.56638172
 O                  0.74446799    0.98522009   -0.22224928
 C                  1.51736499   -0.09013691   -0.78950128
 C                  2.60552999   -0.47882791    0.18706172
 H                  0.87456899   -0.93869991   -1.02260028
 H                  1.93172999    0.30683909   -1.71749128
 H                  3.21934999    0.38743709    0.43737672
 H                  2.16217699   -0.88096591    1.09783072
 H                  3.24475299   -1.24250891   -0.26075628
 O                 -0.29289401   -1.52146191    1.02504072
 H                 -1.04516801   -1.66333691    1.61999472

