%chk=ethyl_propiolate.chk 
%nprocshared=24 
%mem=12GB 
# ccsd(t)/6-311++g(d,p) sp 

Title Card Required

0 2
 C                 -2.04147300   -1.12253400   -0.86365100
 H                 -2.68982300   -1.87863200   -1.24170200
 C                 -1.29169600   -0.28274000   -0.43851300
 C                 -0.55940100    0.90486200    0.03131200
 O                 -1.15202100    1.78502200    0.58212000
 O                  0.74310000    0.98166800   -0.21425800
 C                  1.51056600   -0.09270900   -0.78755700
 C                  2.60522000   -0.47842700    0.18417800
 H                  0.86386400   -0.94070600   -1.01388100
 H                  1.92108900    0.29948700   -1.71949200
 H                  3.21939900    0.38913800    0.42889700
 H                  2.16979800   -0.87677200    1.10033600
 H                  3.24295000   -1.24299900   -0.26419800
 O                 -0.24276800   -1.58983400    1.10496800
 H                 -1.04236700   -1.66855700    1.65147200

