%chk=ethyl_propiolate.chk 
%nprocshared=24 
%mem=12GB 
# ccsd(t)/6-311++g(d,p) sp 

Title Card Required

0 2
 C                  1.74884400   -0.04722400    1.10061900
 H                  2.59161900   -0.45561400    1.60747900
 C                  0.76029100    0.45738100    0.63137200
 C                 -0.36975400    1.09661500   -0.04679900
 O                 -0.24226600    2.14985400   -0.59940200
 O                 -1.53794900    0.45663500   -0.00934800
 C                 -1.63374900   -0.87376800    0.53681800
 C                 -1.15076400   -1.91155400   -0.45682000
 H                 -1.08106200   -0.92212500    1.47734500
 H                 -2.69461100   -0.98902400    0.75242900
 H                 -1.70705500   -1.82421300   -1.39136400
 H                 -0.08456900   -1.79932100   -0.66330800
 H                 -1.31488200   -2.91113700   -0.04867500
 O                  2.37916000   -1.06961200   -0.74389800
 H                  2.46632100   -0.26642900   -1.28418200

