%chk=ethyl_propiolate.chk 
%nprocshared=24 
%mem=12GB 
# ccsd(t)/6-311++g(d,p) sp 

Title Card Required

0 2
 C                  1.75389200   -0.05550100    1.08403700
 H                  2.59296100   -0.45824400    1.60185300
 C                  0.76075700    0.45654500    0.62981300
 C                 -0.36969600    1.09641800   -0.04675700
 O                 -0.24198100    2.14988200   -0.59903600
 O                 -1.53797600    0.45669000   -0.00910500
 C                 -1.63376100   -0.87384700    0.53681600
 C                 -1.15059800   -1.91151900   -0.45683900
 H                 -1.08117500   -0.92226200    1.47744300
 H                 -2.69462500   -0.98910600    0.75240200
 H                 -1.70697100   -1.82423200   -1.39134000
 H                 -0.08440900   -1.79913100   -0.66332000
 H                 -1.31465300   -2.91110600   -0.04867500
 O                  2.37461200   -1.06253200   -0.73081300
 H                  2.46455500   -0.26611200   -1.28022900

