%chk=ethyl_propiolate.chk 
%nprocshared=24 
%mem=12GB 
# ccsd(t)/6-311++g(d,p) sp 

Title Card Required

0 2
 C                  1.83333800   -0.18205300    0.83363800
 H                  2.52118500   -0.40863100    1.63359900
 C                  0.75081600    0.46719800    0.64656400
 C                 -0.36662300    1.09159000   -0.04468700
 O                 -0.23924900    2.15075500   -0.59810700
 O                 -1.54001100    0.45638900   -0.00820100
 C                 -1.63454100   -0.87361800    0.53602500
 C                 -1.14877500   -1.91109800   -0.45642400
 H                 -1.08408400   -0.92235500    1.47902100
 H                 -2.69522800   -0.99066800    0.75188500
 H                 -1.70476300   -1.82376000   -1.39113700
 H                 -0.08202400   -1.79791700   -0.66340800
 H                 -1.31194000   -2.91101600   -0.04881700
 O                  2.32407800   -0.97718000   -0.56636000
 H                  2.44669000   -0.24960900   -1.19000000

