%chk=ethyl_propiolate.chk 
%nprocshared=24 
%mem=12GB 
# ccsd(t)/6-311++g(d,p) sp 

Title Card Required

0 2
 C                  2.17741800   -1.32042900    0.00000500
 H                  3.07256500   -1.89715800    0.00000500
 C                  1.13004800   -0.73161400    0.00000500
 C                  0.00991700    0.19372500    0.00000500
 O                  0.16549900    1.38696600    0.00000800
 O                 -1.16217400   -0.42730200   -0.00000100
 C                 -2.32363600    0.42874100   -0.00000200
 C                 -3.53791100   -0.46978000   -0.00000500
 H                 -2.28040500    1.06817300    0.88385500
 H                 -2.28040200    1.06817400   -0.88385800
 H                 -3.54595400   -1.10545600   -0.88614000
 H                 -3.54595700   -1.10545800    0.88612900
 H                 -4.44363700    0.13888800   -0.00000600
 O                  3.54728000    0.50687700   -0.00001200
 H                  2.83646500    1.17275900   -0.00000800

