%chk=ethyl_propiolate.chk 
%nprocshared=24 
%mem=12GB 
# ccsd(t)/6-311++g(d,p) sp 

Title Card Required

0 2
 C                  2.23880500   -1.22107800    0.00000400
 H                  3.09216100   -1.86031600    0.00000500
 C                  1.13381600   -0.72930900    0.00000500
 C                  0.00955000    0.19250900    0.00000500
 O                  0.16617800    1.38530600    0.00000900
 O                 -1.16210300   -0.42855000   -0.00000100
 C                 -2.32358900    0.42836200   -0.00000200
 C                 -3.53818900   -0.46958300   -0.00000500
 H                 -2.27979900    1.06762600    0.88390900
 H                 -2.27979600    1.06762700   -0.88391200
 H                 -3.54661200   -1.10521500   -0.88617000
 H                 -3.54661500   -1.10521600    0.88616000
 H                 -4.44359800    0.13952400   -0.00000600
 O                  3.49725700    0.43416000   -0.00001200
 H                  2.83054000    1.14267100   -0.00001000

