%chk=ethyl_propiolate.chk 
%nprocshared=24 
%mem=12GB 
# ccsd(t)/6-311++g(d,p) sp 

Title Card Required

0 2
 C                  2.58100100    0.27907900    0.00000000
 H                  3.62864100    0.08784500    0.00000100
 C                  1.43287700    0.64046800   -0.00000300
 C                  0.01390300    0.95365300   -0.00000500
 O                 -0.44261900    2.06026800   -0.00001000
 O                 -0.70477700   -0.17542400    0.00000000
 C                 -2.13690300   -0.00042200   -0.00000100
 C                 -2.75538200   -1.37830300    0.00000500
 H                 -2.41250700    0.57834200    0.88368000
 H                 -2.41250700    0.57833400   -0.88368700
 H                 -2.45372500   -1.93718200   -0.88686900
 H                 -2.45372500   -1.93717500    0.88688400
 H                 -3.84304600   -1.29093700    0.00000500
 O                  2.33674900   -1.88840100    0.00001100
 H                  1.36449000   -1.91028600    0.00001000

