%chk=ethyl_propiolate.chk 
%nprocshared=24 
%mem=12GB 
# ccsd(t)/6-311++g(d,p) sp 

Title Card Required

0 2
 C                  2.57676100    0.26034100    0.00000000
 H                  3.62733500    0.08397200    0.00000100
 C                  1.43301700    0.63936100   -0.00000300
 C                  0.01407300    0.95353300   -0.00000500
 O                 -0.44206900    2.06033000   -0.00001000
 O                 -0.70464700   -0.17535700    0.00000000
 C                 -2.13685700   -0.00039500   -0.00000100
 C                 -2.75526500   -1.37831100    0.00000500
 H                 -2.41243200    0.57835100    0.88369800
 H                 -2.41243100    0.57834400   -0.88370500
 H                 -2.45358000   -1.93717600   -0.88686000
 H                 -2.45358000   -1.93716800    0.88687500
 H                 -3.84292800   -1.29091600    0.00000500
 O                  2.33878100   -1.87353600    0.00001100
 H                  1.36704400   -1.90697800    0.00001000

