%chk=ethyl_propiolate.chk 
%nprocshared=24 
%mem=12GB 
# ccsd(t)/6-311++g(d,p) sp 

Title Card Required

0 2
 C                  2.54672200    0.10012000    0.00000100
 H                  3.61814500    0.13156900    0.00000100
 C                  1.43641800    0.64878900   -0.00000300
 C                  0.01396200    0.95238600   -0.00000500
 O                 -0.44038700    2.06070300   -0.00001000
 O                 -0.70317800   -0.17505400    0.00000000
 C                 -2.13700100   -0.00051800   -0.00000100
 C                 -2.75485800   -1.37844600    0.00000500
 H                 -2.41166900    0.57823500    0.88388700
 H                 -2.41166900    0.57822700   -0.88389300
 H                 -2.45307900   -1.93726500   -0.88674700
 H                 -2.45307900   -1.93725800    0.88676200
 H                 -3.84248800   -1.29043000    0.00000500
 O                  2.35449000   -1.76599800    0.00001000
 H                  1.38931200   -1.85989600    0.00001000

