%chk=ethyl_propiolate.chk 
%nprocshared=24 
%mem=12GB 
# ccsd(t)/6-311++g(d,p) sp 

Title Card Required

0 2
 C                  2.59330800    0.33309000   -0.00000100
 H                  3.63551200    0.11499000    0.00000100
 C                  1.43344500    0.64643100   -0.00000300
 C                  0.01325600    0.95425000   -0.00000500
 O                 -0.44505100    2.06010300   -0.00001000
 O                 -0.70464400   -0.17559800    0.00000000
 C                 -2.13688000   -0.00066800   -0.00000100
 C                 -2.75572400   -1.37836600    0.00000500
 H                 -2.41246100    0.57816900    0.88363100
 H                 -2.41246100    0.57816200   -0.88363800
 H                 -2.45430100   -1.93735300   -0.88689500
 H                 -2.45430100   -1.93734600    0.88691000
 H                 -3.84336900   -1.29075600    0.00000500
 O                  2.33021500   -1.93426300    0.00001100
 H                  1.35739200   -1.92088100    0.00001000

