%chk=ethyl_propiolate.chk 
%nprocshared=24 
%mem=12GB 
# ccsd(t)/6-311++g(d,p) sp 

Title Card Required

0 2
 C                  2.15824900   -1.35093300    0.00000500
 H                  3.05441300   -1.92642900    0.00000500
 C                  1.12714700   -0.73578200    0.00000500
 C                  0.01018500    0.19369800    0.00000500
 O                  0.16650000    1.38685800    0.00000800
 O                 -1.16245600   -0.42648800   -0.00000100
 C                 -2.32387600    0.42930500   -0.00000200
 C                 -3.53781700   -0.46974600   -0.00000500
 H                 -2.28087400    1.06874200    0.88387300
 H                 -2.28087100    1.06874300   -0.88387600
 H                 -3.54551600   -1.10543800   -0.88613300
 H                 -3.54551900   -1.10543900    0.88612200
 H                 -4.44384600    0.13846900   -0.00000600
 O                  3.56400700    0.53284300   -0.00001200
 H                  2.83894100    1.18353900   -0.00000800

