%chk=ethyl_propiolate.chk 
%nprocshared=24 
%mem=12GB 
# ccsd(t)/6-311++g(d,p) sp 

Title Card Required

0 2
 C                  2.34348500   -1.06496200    0.00000400
 H                  3.02801600   -1.89521100    0.00000800
 C                  1.12085100   -0.74988800    0.00000500
 C                  0.01114000    0.19244400    0.00000500
 O                  0.16811300    1.38497500    0.00000900
 O                 -1.16224200   -0.42829400   -0.00000100
 C                 -2.32395500    0.42850900   -0.00000200
 C                 -3.53834000   -0.46960200   -0.00000500
 H                 -2.28009500    1.06767900    0.88398200
 H                 -2.28009100    1.06768200   -0.88398400
 H                 -3.54683500   -1.10512000   -0.88625400
 H                 -3.54683800   -1.10512300    0.88624100
 H                 -4.44375800    0.13945800   -0.00000600
 O                  3.43142600    0.33861700   -0.00001200
 H                  2.80720700    1.08015500   -0.00000400

