%chk=ethyl_propiolate.chk 
%nprocshared=24 
%mem=12GB 
# ccsd(t)/6-311++g(d,p) sp 

Title Card Required

0 2
 C                  2.35480500   -1.04742100    0.00000400
 H                  3.01912500   -1.89559100    0.00000800
 C                  1.11925600   -0.75332200    0.00000500
 C                  0.01179700    0.19237100    0.00000500
 O                  0.16828300    1.38518500    0.00000900
 O                 -1.16227000   -0.42815000   -0.00000100
 C                 -2.32391200    0.42851300   -0.00000200
 C                 -3.53834800   -0.46959700   -0.00000500
 H                 -2.28020900    1.06774500    0.88396700
 H                 -2.28020600    1.06774700   -0.88396900
 H                 -3.54682200   -1.10513200   -0.88624800
 H                 -3.54682500   -1.10513500    0.88623500
 H                 -4.44380000    0.13942400   -0.00000600
 O                  3.42418300    0.32816400   -0.00001200
 H                  2.80498000    1.07349100   -0.00000400

