%chk=ethyl_propiolate.chk 
%nprocshared=24 
%mem=12GB 
# ccsd(t)/6-311++g(d,p) sp 

Title Card Required

0 2
 C                  2.27269800   -1.16928300    0.00000600
 H                  3.07871100   -1.86982800    0.00000900
 C                  1.13178300   -0.73346700    0.00000400
 C                  0.00941800    0.19232300    0.00000600
 O                  0.16696300    1.38468500    0.00000900
 O                 -1.16211000   -0.42867500   -0.00000100
 C                 -2.32378400    0.42844500   -0.00000200
 C                 -3.53827800   -0.46950400   -0.00000500
 H                 -2.27971800    1.06759700    0.88395700
 H                 -2.27971400    1.06760100   -0.88395900
 H                 -3.54683600   -1.10502400   -0.88623600
 H                 -3.54683900   -1.10502700    0.88621800
 H                 -4.44356700    0.13977000   -0.00000700
 O                  3.47415600    0.40095800   -0.00001300
 H                  2.82415300    1.12349100    0.00000000

