%chk=ethyl_propiolate.chk 
%nprocshared=24 
%mem=12GB 
# ccsd(t)/6-311++g(d,p) sp 

Title Card Required

0 2
 C                  2.21754400   -1.25520300    0.00000500
 H                  3.09239300   -1.86337200    0.00000500
 C                  1.13345900   -0.72833000    0.00000500
 C                  0.00965800    0.19290200    0.00000500
 O                  0.16565300    1.38594500    0.00000900
 O                 -1.16208400   -0.42831300   -0.00000100
 C                 -2.32351100    0.42835000   -0.00000200
 C                 -3.53810400   -0.46966400   -0.00000500
 H                 -2.27989400    1.06770100    0.88387300
 H                 -2.27989100    1.06770200   -0.88387600
 H                 -3.54645900   -1.10531000   -0.88615800
 H                 -3.54646200   -1.10531100    0.88614800
 H                 -4.44356400    0.13939100   -0.00000600
 O                  3.51362300    0.45748000   -0.00001200
 H                  2.83260900    1.15294500   -0.00000900

