%chk=ethyl_propiolate_planar.chk
%mem=12GB
%nprocshared=24
# opt=(calcfc,tight,noeigentest) freq 6-31+g m062x

Title Card Required

0 1
 C                  2.45884822   -1.85631464    1.05149677
 H                  3.40117824   -2.35066066    1.01397215
 C                  1.39863040   -1.30012472    1.09382967
 C                  0.11229749   -0.62531489    1.20343290
 O                 -0.41209108   -0.35022081    2.24634903
 O                 -0.39543400   -0.35895800    0.00000000
 C                 -1.67115700    0.31028700   -0.00000100
 C                 -2.06509475    0.51694617    1.44388193
 H                 -2.38804213   -0.31098354   -0.54050488
 H                 -1.56745146    1.25323471   -0.54050351
 H                 -3.03045446    1.02337526    1.49248230
 H                 -2.14790191   -0.44000706    1.96032257
 H                 -1.32480727    1.12898426    1.96032394

