%chk=ethyl_propiolate_planar.chk
%mem=12GB
%nprocshared=24
# opt=(calcfc,tight,noeigentest) freq 6-311++g(d,p) m062x

Title Card Required

0 1
 C                  2.94732700   -0.92517200    0.00000100
 H                  3.87222400   -1.45274900    0.00000100
 C                  1.90677600   -0.33149300    0.00000100
 C                  0.67136100    0.44037700    0.00000100
 O                  0.63146700    1.63901900    0.00000100
 O                 -0.39543400   -0.35895800    0.00000000
 C                 -0.11145158   -1.77130075   -0.00000084
 C                 -1.43931077   -2.49205234   -0.00000193
 H                  0.48669424   -2.00417838    0.88319528
 H                  0.48669437   -2.00417648   -0.88319872
 H                 -1.27206421   -3.57037528   -0.00000338
 H                 -2.01879766   -2.22991140    0.88589000
 H                 -2.01879752   -2.22990949   -0.88589400

