%chk=ethyl_propiolate_planar.chk
%mem=12GB
%nprocshared=24
# opt=(calcfc,tight,noeigentest) freq 6-311++g** m062x

Title Card Required

0 1
 C                  2.097492    1.634704   -0.000000
 H                  2.648264    2.548198   -0.000000
 C                  1.488209    0.589936   -0.000000
 C                  0.807659   -0.693739   -0.000000
 O                  1.400762   -1.763186    0.000001
 O                 -0.554945   -0.666215   -0.000003
 C                 -1.296255    0.600777    0.000001
 C                 -2.762064    0.226004    0.000000
 H                 -1.019632    1.172038   -0.891082
 H                 -1.019631    1.172033    0.891088
 H                 -3.380663    1.127927    0.000002
 H                 -3.002564   -0.365537   -0.885820
 H                 -3.002564   -0.365542    0.885817

