%chk=ethyl_propiolate.chk 
%nprocshared=24 
%mem=12GB 
# ccsd(t)/6-311++g(d,p) sp 

Title Card Required

0 2
 C                  1.26126600    2.24953500   -0.05929000
 H                  1.18594400    3.31212900   -0.07435000
 C                  1.35295600    1.05415000   -0.04228200
 C                  1.54607900   -0.39665900    0.00807900
 O                  2.59552800   -0.88356200    0.29916300
 O                  0.48703500   -1.16013500   -0.30046400
 C                 -0.79968100   -0.57024900   -0.56376700
 C                 -1.51223900   -0.26408100    0.72998300
 H                 -0.68643100    0.32106400   -1.18198900
 H                 -1.33262000   -1.32754300   -1.13466600
 H                 -1.69695200   -1.14511600    1.34226400
 H                 -1.09142500    0.56406700    1.29862100
 H                 -2.72351100    0.17950800    0.34175200
 O                 -3.79802100    0.38637600   -0.11361400
 H                 -4.30911100   -0.28033100    0.36600400

