%chk=ethyl_propiolate.chk 
%nprocshared=24 
%mem=12GB 
# ccsd(t)/6-311++g(d,p) sp 

Title Card Required

0 2
 C                  1.26173300    2.24938700   -0.05944100
 H                  1.18661800    3.31178700   -0.07393900
 C                  1.35335100    1.05396300   -0.04256400
 C                  1.54540900   -0.39850600    0.00713400
 O                  2.59671600   -0.88294600    0.29978900
 O                  0.49105600   -1.16104700   -0.30431400
 C                 -0.79434600   -0.57227800   -0.55959300
 C                 -1.49302000   -0.26443100    0.74347600
 H                 -0.68432400    0.31936600   -1.17930200
 H                 -1.33132200   -1.32730100   -1.13087900
 H                 -1.64159500   -1.16205500    1.34388400
 H                 -0.96781800    0.49463000    1.32556900
 H                 -2.47507400    0.18915200    0.50776100
 O                 -3.84788300    0.39562600   -0.13508500
 H                 -4.32213000   -0.29050100    0.36452600

