%chk=ethyl_propiolate.chk 
%nprocshared=24 
%mem=12GB 
# ccsd(t)/6-311++g(d,p) sp 

Title Card Required

0 2
 C                  1.26128800    2.24954000   -0.05929600
 H                  1.18596900    3.31209100   -0.07429300
 C                  1.35298300    1.05415900   -0.04229300
 C                  1.54586800   -0.39689400    0.00798200
 O                  2.59562100   -0.88351900    0.29920300
 O                  0.48728900   -1.16005900   -0.30067300
 C                 -0.79886800   -0.57056500   -0.56329200
 C                 -1.51498100   -0.26288600    0.72960300
 H                 -0.68627100    0.32084900   -1.18178200
 H                 -1.33233100   -1.32747900   -1.13441600
 H                 -1.68755200   -1.14624700    1.34284900
 H                 -1.07981600    0.55693700    1.30051000
 H                 -2.64762900    0.16257800    0.37491800
 O                 -3.80297200    0.38752600   -0.11583900
 H                 -4.30836900   -0.28295900    0.36811300

