%chk=ethyl_propiolate.chk 
%nprocshared=24 
%mem=12GB 
# ccsd(t)/6-311++g(d,p) sp 

Title Card Required

0 2
 C                  1.26156500    2.24947300   -0.05939500
 H                  1.18641500    3.31188800   -0.07403200
 C                  1.35320800    1.05406500   -0.04244800
 C                  1.54526100   -0.39814800    0.00741400
 O                  2.59633700   -0.88313100    0.29957900
 O                  0.48988200   -1.16054200   -0.30294900
 C                 -0.79530500   -0.57197300   -0.56057000
 C                 -1.50200300   -0.26361700    0.73800900
 H                 -0.68463200    0.31955300   -1.18025500
 H                 -1.33090400   -1.32752300   -1.13240200
 H                 -1.64961500   -1.15725500    1.34429800
 H                 -1.00020500    0.51304200    1.31708600
 H                 -2.49829400    0.17203100    0.47753400
 O                 -3.83481200    0.39355500   -0.12931400
 H                 -4.31788400   -0.28861400    0.36668100

