%chk=ethyl_propiolate.chk 
%nprocshared=24 
%mem=12GB 
# ccsd(t)/6-311++g(d,p) sp 

Title Card Required

0 2
 C                 -2.04261900   -1.09676100   -0.86321100
 H                 -2.70923200   -1.80979500   -1.29328600
 C                 -1.18490700   -0.44445800   -0.23317300
 C                 -0.54668300    0.88409100    0.05648800
 O                 -1.16340000    1.77338200    0.55993000
 O                  0.74413100    0.98673100   -0.22519000
 C                  1.51962600   -0.08931000   -0.79029300
 C                  2.60567600   -0.47878100    0.18764900
 H                  0.88056500   -0.93934300   -1.02656700
 H                  1.93458800    0.30941300   -1.71719300
 H                  3.21975100    0.38711300    0.43876000
 H                  2.15890500   -0.88221800    1.09597600
 H                  3.24495600   -1.24221100   -0.26064200
 O                 -0.32818600   -1.47409600    0.97116700
 H                 -1.04724200   -1.64443500    1.59463700

