%chk=ethyl_propiolate.chk 
%nprocshared=24 
%mem=12GB 
# ccsd(t)/6-311++g(d,p) sp 

Title Card Required

0 2
 C                 -2.04205200   -1.09967200   -0.86191200
 H                 -2.71004200   -1.81015000   -1.29356400
 C                 -1.19349000   -0.43197700   -0.24811900
 C                 -0.54665300    0.88506300    0.05609700
 O                 -1.16293200    1.77385000    0.56090800
 O                  0.74415200    0.98649300   -0.22476800
 C                  1.51930100   -0.08950200   -0.79017300
 C                  2.60564600   -0.47879400    0.18757900
 H                  0.87960500   -0.93933900   -1.02567600
 H                  1.93408100    0.30906500   -1.71723400
 H                  3.21971000    0.38715400    0.43853200
 H                  2.15923700   -0.88208400    1.09617600
 H                  3.24488900   -1.24226000   -0.26068600
 O                 -0.32229000   -1.48186200    0.97997700
 H                 -1.04723000   -1.64734700    1.59864500

