%chk=ethyl_propiolate.chk 
%nprocshared=24 
%mem=12GB 
# ccsd(t)/6-311++g(d,p) sp 

Title Card Required

0 2
 C                 -2.04132000   -1.12185300   -0.86165600
 H                 -2.69284000   -1.87159700   -1.24691300
 C                 -1.28582400   -0.29254500   -0.42452200
 C                 -0.55755100    0.90192400    0.03495700
 O                 -1.15316900    1.78367200    0.57965100
 O                  0.74361800    0.98229500   -0.21556900
 C                  1.51196700   -0.09205000   -0.78791400
 C                  2.60530200   -0.47862800    0.18483000
 H                  0.86568000   -0.93984600   -1.01597500
 H                  1.92359300    0.30106600   -1.71894100
 H                  3.21934100    0.38864900    0.43092300
 H                  2.16857100   -0.87769300    1.10008400
 H                  3.24343500   -1.24298900   -0.26333200
 O                 -0.24914400   -1.58080800    1.09433400
 H                 -1.04310200   -1.67021000    1.64708000

