%chk=ethyl_propiolate.chk 
%nprocshared=24 
%mem=12GB 
# ccsd(t)/6-311++g(d,p) sp 

Title Card Required

0 2
 C                 -2.04336300   -1.08621200   -0.86683300
 H                 -2.70220800   -1.81494900   -1.28525000
 C                 -1.15971200   -0.48201500   -0.18884100
 C                 -0.54735700    0.88024000    0.05760100
 O                 -1.16469900    1.77184500    0.55683700
 O                  0.74412700    0.98742400   -0.22649200
 C                  1.52057000   -0.08853300   -0.79067000
 C                  2.60578500   -0.47873400    0.18780900
 H                  0.88336000   -0.93896500   -1.02992000
 H                  1.93638400    0.31038200   -1.71706300
 H                  3.21984000    0.38696700    0.43957300
 H                  2.15840100   -0.88248700    1.09565300
 H                  3.24525000   -1.24208100   -0.26039800
 O                 -0.34629600   -1.45090900    0.94471100
 H                 -1.04623900   -1.63730900    1.58329600

