%chk=ethyl_propiolate.chk 
%nprocshared=24 
%mem=12GB 
# ccsd(t)/6-311++g(d,p) sp 

Title Card Required

0 2
 C                 -2.04321500   -1.08201300   -0.86787500
 H                 -2.69805900   -1.81882200   -1.27986300
 C                 -1.15157700   -0.49449200   -0.17429300
 C                 -0.54774400    0.87857300    0.05803300
 O                 -1.16511300    1.77124400    0.55570600
 O                  0.74413400    0.98764500   -0.22696100
 C                  1.52088700   -0.08819800   -0.79080900
 C                  2.60582800   -0.47871700    0.18785000
 H                  0.88428100   -0.93869700   -1.03129400
 H                  1.93710400    0.31071200   -1.71701000
 H                  3.21986200    0.38690800    0.43989400
 H                  2.15837700   -0.88253900    1.09563100
 H                  3.24538200   -1.24204200   -0.26027800
 O                 -0.35250000   -1.44322700    0.93587300
 H                 -1.04553200   -1.63560500    1.57968300

