%chk=ethyl_propiolate.chk 
%nprocshared=24 
%mem=12GB 
# ccsd(t)/6-311++g(d,p) sp 

Title Card Required

0 2
 C                 -2.03972300   -1.11657900   -0.85718000
 H                 -2.70194100   -1.84317900   -1.26830100
 C                 -1.25885500   -0.33513700   -0.36693500
 C                 -0.55150600    0.89287000    0.04688800
 O                 -1.15750700    1.77905900    0.57099500
 O                  0.74456700    0.98425500   -0.21999500
 C                  1.51569600   -0.09056500   -0.78899000
 C                  2.60547500   -0.47889400    0.18641400
 H                  0.87124000   -0.93842000   -1.02096800
 H                  1.92963900    0.30502600   -1.71782100
 H                  3.21927900    0.38763100    0.43577500
 H                  2.16467700   -0.87999600    1.09891500
 H                  3.24447900   -1.24279500   -0.26130600
 O                 -0.27455200   -1.54622400    1.05369100
 H                 -1.04418300   -1.66991200    1.63208600

