%chk=ethyl_propiolate.chk 
%nprocshared=24 
%mem=12GB 
# ccsd(t)/6-311++g(d,p) sp 

Title Card Required

0 2
 C                  1.79983100   -0.12751700    0.94316400
 H                  2.56807100   -0.43900300    1.62138500
 C                  0.75647900    0.46021200    0.63348900
 C                 -0.36946500    1.09447000   -0.04551700
 O                 -0.23995900    2.15020200   -0.59800100
 O                 -1.53867200    0.45667200   -0.00838700
 C                 -1.63418900   -0.87419800    0.53649900
 C                 -1.14937000   -1.91123500   -0.45669900
 H                 -1.08294600   -0.92251100    1.47857800
 H                 -2.69497000   -0.98946500    0.75235600
 H                 -1.70597800   -1.82400500   -1.39105500
 H                 -0.08269000   -1.79813100   -0.66350300
 H                 -1.31319100   -2.91086600   -0.04860600
 O                  2.34337100   -1.01193400   -0.63484700
 H                  2.45382000   -0.25619300   -1.23094800

