%chk=ethyl_propiolate.chk 
%nprocshared=24 
%mem=12GB 
# ccsd(t)/6-311++g(d,p) sp 

Title Card Required

0 2
 C                  1.76443100   -0.07263500    1.04986100
 H                  2.59281000   -0.45952500    1.59748700
 C                  0.76120900    0.45569000    0.62828300
 C                 -0.36969900    1.09607300   -0.04653500
 O                 -0.24138100    2.14988000   -0.59846900
 O                 -1.53803600    0.45675900   -0.00874100
 C                 -1.63382900   -0.87400400    0.53680700
 C                 -1.15028400   -1.91143200   -0.45685400
 H                 -1.08150500   -0.92245600    1.47768200
 H                 -2.69469900   -0.98920600    0.75235000
 H                 -1.70679400   -1.82423900   -1.39128000
 H                 -0.08406200   -1.79877400   -0.66335300
 H                 -1.31424200   -2.91102900   -0.04866500
 O                  2.36580700   -1.04878800   -0.70543000
 H                  2.46159000   -0.26500900   -1.27095300

