%chk=ethyl_propiolate.chk
%nprocshared=4
%mem=150MW
# opt=(calcfc,tight,noeigentest) freq 6-311++g(d,p) m062x

Title Card Required

0 2
 C                  1.21543200    2.16156900   -0.09861500
 C                  1.05119800    0.96348500   -0.05401100
 C                  0.90035100   -0.49999100    0.02069700
 O                  1.81461400   -1.20130300    0.35529600
 O                 -0.28956600   -1.00598500   -0.31288000
 C                 -1.40589900   -0.15359900   -0.62524200
 C                 -2.12253500    0.28594300    0.63689100
 H                 -1.06428000    0.69832300   -1.21967600
 H                 -2.04572900   -0.77830700   -1.24985400
 H                 -2.43139900   -0.58484000    1.21976300
 H                 -1.47774400    0.91396800    1.25735700
 H                 -3.01250700    0.86472200    0.37476000

