%chk=ethyl_propiolate.chk
%nprocshared=4
%mem=150MW
# ccsd(t)/6-311++g(d,p) sp

Title Card Required

0 2
 C                  1.19447300    2.15785500   -0.10696000
 C                  1.03841200    0.96519900   -0.05806600
 C                  0.90040500   -0.49801200    0.02143100
 O                  1.81302900   -1.18630100    0.36197400
 O                 -0.28218300   -1.01024300   -0.32038600
 C                 -1.40583400   -0.16435700   -0.62359300
 C                 -2.10447500    0.28677900    0.64328300
 H                 -1.07740800    0.68042500   -1.23186100
 H                 -2.05235600   -0.79622700   -1.23037700
 H                 -2.40167200   -0.57769800    1.23844900
 H                 -1.45425300    0.92269000    1.24658800
 H                 -2.99897000    0.85838100    0.38793600

