%nprocshared=4
%mem=150MW
%chk=ethyl_propiolate.chk
# opt=(calcfc,tight,noeigentest) freq 6-311++g(d,p) m062x

Title Card Required

0 2
 C                 -2.08215000    1.62934400    0.02881500
 H                 -2.64663100    2.53643200    0.04489800
 C                 -1.45319700    0.60116300    0.01361000
 C                 -0.76621600   -0.68772200   -0.00027900
 O                 -1.35060300   -1.73551800   -0.01635300
 O                  0.58409600   -0.65499200    0.00996700
 C                  1.29361100    0.52763600   -0.00851400
 C                  2.76113200    0.32872900    0.03136200
 H                  0.82088700    1.36319300   -0.51227900
 H                  3.04207000   -0.30037100    0.88126400
 H                  3.13211400   -0.16288900   -0.87976600
 H                  3.26453600    1.29282200    0.12700800

