%chk=ethyl_propiolate.chk
# opt=(calcfc,tight,noeigentest) freq 6-311++g(d,p) m062x

Title Card Required

0 2
 C                  1.25552900    1.99397900   -0.11684100
 H                  1.49780800    3.03358400   -0.16071000
 C                  0.99059600    0.81890600   -0.06063900
 C                  0.76713400   -0.62775200    0.02417500
 O                  1.64335000   -1.38569300    0.34025600
 O                 -0.45777900   -1.07707900   -0.29069800
 C                 -1.52142000   -0.14096000   -0.55822100
 C                 -1.99686900    0.51822500    0.68371200
 H                 -1.19613300    0.58922000   -1.30583600
 H                 -2.29302800   -0.77252900   -1.01310400
 H                 -2.15992100   -0.07793500    1.57319800
 H                 -2.30311800    1.55544800    0.67686900

