%chk=ethyl_propiolate.chk
%nprocshared=24
%mem=12GB
# opt=(calcfc,tight,noeigentest) freq 6-311++g(d,p) m062x

Title Card Required

0 2
 C                  3.09233300   -0.53784500    0.34994600
 C                  1.96659100   -0.17764500    0.13099300
 C                  0.60901400    0.29623600   -0.12905800
 O                  0.31087600    1.45588900   -0.17241100
 O                 -0.22142800   -0.72706600   -0.31178900
 C                 -1.60138500   -0.38640900   -0.56511100
 C                 -2.32344800   -0.04587400    0.72337400
 H                 -2.01014700   -1.27996600   -1.03306400
 H                 -1.63109000    0.44272100   -1.27288900
 H                 -3.37937000    0.13396000    0.51258800
 H                 -2.24838000   -0.87219000    1.43168600
 H                 -1.90522400    0.85411200    1.17441800

