%chk=ethyl_propiolate.chk
%nprocshared=24
%mem=12GB
# opt=(calcfc,tight,noeigentest) freq 6-311++g(d,p) m062x

Title Card Required

0 2
 C                  3.11478900   -0.55724900    0.34600800
 C                  1.98048000   -0.18455100    0.12986100
 C                  0.64048900    0.29527900   -0.12322100
 O                  0.32369200    1.48180000   -0.16339800
 O                 -0.22664500   -0.72754100   -0.31817400
 C                 -1.63576500   -0.37904300   -0.57419600
 C                 -2.34820500   -0.05681100    0.72678800
 H                 -2.02915600   -1.27409700   -1.05362000
 H                 -1.65745500    0.46283900   -1.26998100
 H                 -3.41029300    0.11957600    0.53237600
 H                 -2.25913300   -0.89087500    1.42699000
 H                 -1.93106600    0.84273200    1.18536600

