%nprocshared=24
%mem=12GB
%chk=ethyl_propiolate.chk
# ccsd(t)/6-311++g** sp

Title Card Required

0 2
 C                  2.89814900   -0.94740000    0.01500700
 H                  3.81255200   -1.49302600    0.02362700
 C                  1.86887100   -0.33397700    0.00432000
 C                  0.65436700    0.45949300   -0.00409800
 O                  0.61769400    1.65560100    0.02462100
 O                 -0.43301800   -0.33819900   -0.04817100
 C                 -1.67023700    0.25374400   -0.09114000
 C                 -2.80027400   -0.68939300    0.04399700
 H                 -1.70239800    1.31254600    0.11704300
 H                 -3.74112800   -0.17030600   -0.13707800
 H                 -2.70891800   -1.51077000   -0.67147000
 H                 -2.84276700   -1.13245500    1.04777300

