%nprocshared=24
%mem=12GB
%chk=ethyl_propiolate.chk
# opt=(calcfc,tight,noeigentest) freq 6-311++g(d,p) m062x

Title Card Required

0 2
 C                  2.91534100   -0.96523400    0.00957800
 H                  3.82919700   -1.51452000    0.01439900
 C                  1.88197800   -0.33902400    0.00370400
 C                  0.68280500    0.45361500   -0.00150600
 O                  0.63126000    1.68072500    0.02223600
 O                 -0.43878200   -0.33449000   -0.03682000
 C                 -1.70056000    0.25827600   -0.07316200
 C                 -2.82422800   -0.69654200    0.03597600
 H                 -1.73515600    1.33018300    0.06046800
 H                 -3.77239700   -0.17863600   -0.12083000
 H                 -2.73532200   -1.49506700   -0.70869800
 H                 -2.85815600   -1.17839400    1.02379500

