%chk=ethyl_propiolate.chk
%nprocshared=24
%mem=12GB
# opt=(calcfc,tight,noeigentest) freq 6-31+g m062x

Title Card Required

0 2
 C                  3.01691200   -0.38524700    0.28851000
 H                  4.03936300   -0.63331200    0.46112400
 C                  1.85980100   -0.09879000    0.09250100
 C                  0.49019700    0.29061900   -0.14078800
 O                  0.09870400    1.45320300   -0.23720500
 O                 -0.33010200   -0.78609200   -0.25190700
 C                 -1.77851500   -0.49108300   -0.47845700
 C                 -2.42051200    0.03308700    0.75064000
 H                 -2.16206500   -1.46521700   -0.77799400
 H                 -1.83779600    0.21695000   -1.30735700
 H                 -2.48090400    1.09958100    0.92184700
 H                 -2.71471000   -0.64640900    1.54083800

