%chk=ethyl_propiolate.chk
%nprocshared=24
%mem=12GB
# opt=(calcfc,tight,noeigentest) freq 6-311++g(d,p) m062x

Title Card Required

0 2
 C                  2.99348300   -0.37250600    0.28846100
 H                  4.01507500   -0.61728300    0.46224600
 C                  1.84410300   -0.09703400    0.09286500
 C                  0.46037000    0.29123100   -0.14403100
 O                  0.09332000    1.42962100   -0.23854900
 O                 -0.32723100   -0.77994200   -0.24672000
 C                 -1.73927700   -0.49120800   -0.47418100
 C                 -2.39838300    0.03669500    0.74498500
 H                 -2.14220600   -1.45787800   -0.77102500
 H                 -1.80853700    0.21201800   -1.30432600
 H                 -2.47179800    1.10182500    0.90720400
 H                 -2.68303500   -0.63917900    1.53946500

