%chk=ethyl_propiolate.chk 
%nprocshared=24 
%mem=12GB 
# ccsd(t)/6-311++g(d,p) sp 

Title Card Required

0 2
 C                  2.18179800   -0.41094000   -0.06283000
 H                  3.44481300   -0.88356400   -0.13062600
 C                  1.07431500    0.06733100   -0.01750600
 C                 -0.27988700    0.61385900   -0.00390600
 O                 -0.51701400    1.78918700    0.01213600
 O                 -1.19260500   -0.35424600   -0.01013600
 C                 -2.56599500    0.08430100    0.00855300
 C                 -3.42710500   -1.15716000   -0.00407500
 H                 -2.72338600    0.68925600    0.90388700
 H                 -2.73897100    0.71850200   -0.86332600
 H                 -3.23701300   -1.74630900   -0.90194900
 H                 -3.21998300   -1.77606000    0.86967400
 H                 -4.48087300   -0.87378600    0.01060200
 O                  4.49904000   -0.60422400    0.08809900
 H                  4.60624900    0.24468000   -0.36827600

