%chk=ethyl_propiolate.chk 
%nprocshared=24 
%mem=12GB 
# ccsd(t)/6-311++g(d,p) sp 

Title Card Required

0 2
 C                  2.18246900   -0.41120500   -0.06300400
 H                  3.41907000   -0.87712800   -0.12739500
 C                  1.07479100    0.06692300   -0.01760400
 C                 -0.27962100    0.61385800   -0.00384800
 O                 -0.51702100    1.78917900    0.01212900
 O                 -1.19257700   -0.35424800   -0.01013300
 C                 -2.56595100    0.08430500    0.00855400
 C                 -3.42709900   -1.15715400   -0.00407700
 H                 -2.72338100    0.68926700    0.90388300
 H                 -2.73897000    0.71851400   -0.86331400
 H                 -3.23700700   -1.74630500   -0.90195200
 H                 -3.21997400   -1.77606600    0.86966500
 H                 -4.48087100   -0.87377800    0.01060300
 O                  4.49944700   -0.60418600    0.08801400
 H                  4.60747800    0.24582900   -0.36740500

