%chk=ethyl_propiolate.chk 
%nprocshared=24 
%mem=12GB 
# ccsd(t)/6-311++g(d,p) sp 

Title Card Required

0 2
 C                  2.17428200   -0.40835500   -0.06053400
 H                  3.61492800   -0.97911100   -0.20156500
 C                  1.06898400    0.07149600   -0.01629800
 C                 -0.28260200    0.61415600   -0.00459700
 O                 -0.51739400    1.78961100    0.01224900
 O                 -1.19327800   -0.35426000   -0.01020600
 C                 -2.56652900    0.08424100    0.00857600
 C                 -3.42726900   -1.15721900   -0.00409700
 H                 -2.72363800    0.68908800    0.90399800
 H                 -2.73928400    0.71851300   -0.86329400
 H                 -3.23715700   -1.74627400   -0.90202400
 H                 -3.22006300   -1.77608300    0.86965000
 H                 -4.48104400   -0.87398000    0.01062000
 O                  4.50260200   -0.60306200    0.09138400
 H                  4.59208100    0.23232800   -0.38432200

