%chk=ethyl_propiolate.chk 
%nprocshared=24 
%mem=12GB 
# ccsd(t)/6-311++g(d,p) sp 

Title Card Required

0 2
 C                  2.18352300   -0.41169100   -0.06331100
 H                  3.36668100   -0.86802500   -0.12369200
 C                  1.07559600    0.06621600   -0.01776400
 C                 -0.27914700    0.61386600   -0.00375100
 O                 -0.51705200    1.78917900    0.01211700
 O                 -1.19254600   -0.35425300   -0.01012900
 C                 -2.56587600    0.08431100    0.00855400
 C                 -3.42709200   -1.15714400   -0.00408000
 H                 -2.72338300    0.68929000    0.90387100
 H                 -2.73897900    0.71853400   -0.86329200
 H                 -3.23699500   -1.74630200   -0.90195400
 H                 -3.21996000   -1.77607800    0.86965100
 H                 -4.48087300   -0.87377200    0.01060400
 O                  4.50078000   -0.60399900    0.08799200
 H                  4.60965200    0.24783000   -0.36612800

