%chk=ethyl_propiolate.chk 
%nprocshared=24 
%mem=12GB 
# ccsd(t)/6-311++g(d,p) sp 

Title Card Required

0 2
 C                  2.17256600   -0.40767000   -0.05976100
 H                  3.65073700   -1.00736100   -0.22629500
 C                  1.06764900    0.07238500   -0.01598700
 C                 -0.28324200    0.61434600   -0.00476500
 O                 -0.51766700    1.78982600    0.01227400
 O                 -1.19357100   -0.35426100   -0.01024000
 C                 -2.56669100    0.08422400    0.00858300
 C                 -3.42734400   -1.15724000   -0.00410400
 H                 -2.72378700    0.68904900    0.90402300
 H                 -2.73947300    0.71853600   -0.86325900
 H                 -3.23720300   -1.74626700   -0.90204700
 H                 -3.22008200   -1.77610500    0.86963100
 H                 -4.48113700   -0.87408300    0.01063000
 O                  4.50413000   -0.60255700    0.09261900
 H                  4.58833800    0.22869100   -0.39005300

