%chk=ethyl_propiolate.chk
# ccsd(t)/6-311++g(d,p) sp

Title Card Required

0 2
 C                  1.54925200   -0.32281200   -0.02837000
 H                  2.58439100   -0.05463200   -0.03339000
 C                  0.38953400   -0.63131200   -0.02153500
 C                 -1.00241100   -1.08347300    0.01569300
 O                 -1.29522000   -2.19620100    0.33863100
 O                 -1.93813700   -0.19701300   -0.34523500
 C                 -1.59517400    1.16926400   -0.62889400
 C                 -1.48963900    1.98009800    0.64767300
 H                 -0.67188300    1.20554400   -1.21013600
 H                 -2.41320500    1.52195700   -1.25534700
 H                 -2.41807700    1.91059800    1.21606200
 H                 -0.66724400    1.62428800    1.27071900
 H                 -1.30582400    3.02912900    0.40680200
 O                  4.76232600    0.42077600   -0.04456400
 H                  5.55072100   -0.12797900    0.10723600

