%chk=ethyl_propiolate.chk
# opt=(calcfc,tight,noeigentest) freq 6-311++g(d,p) m062x

Title Card Required

0 2
 C                  1.56388100   -0.31977000   -0.02953300
 H                  2.60227300   -0.05047900   -0.03397700
 C                  0.39772400   -0.63041200   -0.02297400
 C                 -0.99373300   -1.08755600    0.01610000
 O                 -1.28424100   -2.21005100    0.33380000
 O                 -1.93865600   -0.20231000   -0.33173300
 C                 -1.60286900    1.16281100   -0.62913500
 C                 -1.51318000    1.98932900    0.63981000
 H                 -0.67313100    1.19865200   -1.20384400
 H                 -2.41987400    1.50313300   -1.26740200
 H                 -2.44657700    1.92002000    1.20335800
 H                 -0.69182800    1.64496400    1.27403900
 H                 -1.33346000    3.03841700    0.38830500
 O                  4.76231600    0.43697700   -0.04162500
 H                  5.53631200   -0.13805900    0.11037300

