%chk=ethyl_propiolate.chk 
%nprocshared=24 
%mem=12GB 
# ccsd(t)/6-311++g(d,p) sp 

Title Card Required

0 2
 C                  3.27826300   -0.52370300   -0.44104000
 H                  4.27162000   -0.79077900   -0.71704500
 C                  2.16084400   -0.22476800   -0.13036200
 C                  0.82303600    0.18495200    0.25977600
 O                  0.56530500    1.24186900    0.77065000
 O                 -0.07487300   -0.76152300   -0.01925700
 C                 -1.41985700   -0.48453300    0.35731900
 C                 -2.29421600   -1.62274300   -0.08943000
 H                 -1.46831200   -0.25944700    1.42475000
 H                 -1.75702800    0.48013200   -0.18882400
 H                 -2.21454400   -1.76282600   -1.16784200
 H                 -2.00047900   -2.54948600    0.40862100
 H                 -3.33276600   -1.40322100    0.16057200
 O                 -1.91694300    1.78134600   -0.70166600
 H                 -1.19815900    2.19135500   -0.18858200

