%chk=ethyl_propiolate.chk 
%nprocshared=24 
%mem=12GB 
# ccsd(t)/6-311++g(d,p) sp 

Title Card Required

0 2
 C                  3.27812400   -0.52374000   -0.44103200
 H                  4.27162700   -0.79057500   -0.71713600
 C                  2.16054700   -0.22511100   -0.13047600
 C                  0.82499400    0.18706200    0.26057600
 O                  0.56596900    1.24126200    0.77125800
 O                 -0.07929500   -0.75995400   -0.01978000
 C                 -1.41569100   -0.48613600    0.35604600
 C                 -2.29502800   -1.61743200   -0.09128400
 H                 -1.47365100   -0.22575100    1.41446400
 H                 -1.77488200    0.63126800   -0.24731700
 H                 -2.21438100   -1.76360800   -1.16873600
 H                 -1.99559700   -2.54231300    0.41105100
 H                 -3.33332700   -1.40153900    0.16068200
 O                 -1.91521900    1.76419500   -0.69552400
 H                 -1.20528000    2.19118500   -0.19145400

