%chk=ethyl_propiolate.chk 
%nprocshared=24 
%mem=12GB 
# ccsd(t)/6-311++g(d,p) sp 

Title Card Required

0 2
 C                  3.27813700   -0.52373700   -0.44103200
 H                  4.27162300   -0.79059400   -0.71712600
 C                  2.16057900   -0.22508200   -0.13047100
 C                  0.82477100    0.18682200    0.26048900
 O                  0.56591400    1.24132800    0.77121300
 O                 -0.07880600   -0.76010400   -0.01971800
 C                 -1.41636900   -0.48503900    0.35573400
 C                 -2.29495200   -1.61788200   -0.09111000
 H                 -1.47300700   -0.22988100    1.41563300
 H                 -1.77017800    0.60399700   -0.23590300
 H                 -2.21440500   -1.76344500   -1.16863200
 H                 -1.99596900   -2.54272000    0.41089000
 H                 -3.33328200   -1.40163200    0.16063700
 O                 -1.91544500    1.76597500   -0.69620900
 H                 -1.20427700    2.19082600   -0.19074900

