%chk=ethyl_propiolate.chk 
%nprocshared=24 
%mem=12GB 
# ccsd(t)/6-311++g(d,p) sp 

Title Card Required

0 2
 C                  2.17338500   -0.40800700   -0.06015500
 H                  3.63336400   -0.99295300   -0.21347900
 C                  1.06830200    0.07196200   -0.01614000
 C                 -0.28293100    0.61424300   -0.00468500
 O                 -0.51751800    1.78971200    0.01226300
 O                 -1.19341800   -0.35426200   -0.01022200
 C                 -2.56660900    0.08423200    0.00858000
 C                 -3.42730400   -1.15722900   -0.00410100
 H                 -2.72370500    0.68906700    0.90401200
 H                 -2.73937100    0.71852400   -0.86327700
 H                 -3.23718000   -1.74627000   -0.90203700
 H                 -3.22007200   -1.77609400    0.86964000
 H                 -4.48108700   -0.87402800    0.01062500
 O                  4.50335300   -0.60283100    0.09197500
 H                  4.59020600    0.23051500   -0.38711400

