%chk=ethyl_propiolate.chk 
%nprocshared=24 
%mem=12GB 
# ccsd(t)/6-311++g(d,p) sp 

Title Card Required

0 2
 C                  3.27811200   -0.52374200   -0.44103200
 H                  4.27163000   -0.79055700   -0.71714400
 C                  2.16051800   -0.22513800   -0.13047900
 C                  0.82519800    0.18727900    0.26065300
 O                  0.56601800    1.24120500    0.77129900
 O                 -0.07974500   -0.75981400   -0.01984100
 C                 -1.41501400   -0.48735500    0.35643500
 C                 -2.29509300   -1.61703100   -0.09143900
 H                 -1.47426100   -0.22180300    1.41336000
 H                 -1.77986200    0.65855800   -0.25894000
 H                 -2.21435900   -1.76377100   -1.16883800
 H                 -1.99530200   -2.54200500    0.41116600
 H                 -3.33336800   -1.40146200    0.16072700
 O                 -1.91500200    1.76257100   -0.69488900
 H                 -1.20626700    2.19168200   -0.19222000

