%chk=ethyl_propiolate.chk 
%nprocshared=24 
%mem=12GB 
# ccsd(t)/6-311++g(d,p) sp 

Title Card Required

0 2
 C                  2.18413800   -0.41222100   -0.06370400
 H                  3.28743400   -0.86105300   -0.12246000
 C                  1.07658900    0.06527800   -0.01796800
 C                 -0.27846300    0.61390300   -0.00362200
 O                 -0.51712200    1.78920000    0.01210000
 O                 -1.19252100   -0.35426500   -0.01012500
 C                 -2.56577000    0.08431900    0.00855300
 C                 -3.42708400   -1.15713300   -0.00408200
 H                 -2.72339800    0.68932500    0.90384900
 H                 -2.73900500    0.71856200   -0.86326200
 H                 -3.23697500   -1.74630400   -0.90195300
 H                 -3.21993900   -1.77609200    0.86963600
 H                 -4.48088200   -0.87377300    0.01060600
 O                  4.50379700   -0.60354600    0.08818900
 H                  4.61296100    0.25034100   -0.36462100

