%chk=ethyl_propiolate.chk 
%nprocshared=24 
%mem=12GB 
# ccsd(t)/6-311++g(d,p) sp 

Title Card Required

0 2
 C                  2.18101500   -0.41065400   -0.06262800
 H                  3.46979600   -0.89172600   -0.13537900
 C                  1.07378100    0.06777800   -0.01739400
 C                 -0.28017500    0.61386700   -0.00397000
 O                 -0.51701600    1.78920200    0.01214200
 O                 -1.19264200   -0.35424500   -0.01013800
 C                 -2.56604500    0.08429500    0.00855000
 C                 -3.42711400   -1.15716700   -0.00407100
 H                 -2.72339600    0.68924400    0.90389200
 H                 -2.73897900    0.71849300   -0.86333700
 H                 -3.23702100   -1.74631200   -0.90194700
 H                 -3.21999400   -1.77605200    0.86968500
 H                 -4.48087900   -0.87379600    0.01060000
 O                  4.49885900   -0.60420400    0.08826700
 H                  4.60489700    0.24344100   -0.36935700

