%chk=ethyl_propiolate.chk 
%nprocshared=24 
%mem=12GB 
# ccsd(t)/6-311++g(d,p) sp 

Title Card Required

0 2
 C                  2.18008800   -0.41032800   -0.06239200
 H                  3.49332700   -0.90193700   -0.14184000
 C                  1.07316300    0.06827500   -0.01726700
 C                 -0.28049000    0.61388500   -0.00404500
 O                 -0.51703000    1.78923000    0.01214800
 O                 -1.19269300   -0.35424400   -0.01014200
 C                 -2.56610000    0.08428700    0.00854200
 C                 -3.42712400   -1.15717800   -0.00406200
 H                 -2.72342600    0.68926400    0.90385800
 H                 -2.73899400    0.71843300   -0.86339200
 H                 -3.23700700   -1.74637000   -0.90189900
 H                 -3.22000000   -1.77601700    0.86973100
 H                 -4.48088700   -0.87384000    0.01059700
 O                  4.49899800   -0.60412000    0.08853700
 H                  4.60332300    0.24210800   -0.37073100

