%chk=ethyl_propiolate.chk 
%nprocshared=24 
%mem=12GB 
# ccsd(t)/6-311++g(d,p) sp 

Title Card Required

0 2
 C                  2.17910843   -0.40998952   -0.06211471
 H                  3.51556843   -0.91338052   -0.14982971
 C                  1.07248143    0.06883248   -0.01711371
 C                 -0.28084057    0.61390348   -0.00413771
 O                 -0.51705457    1.78926748    0.01216329
 O                 -1.19276457   -0.35424752   -0.01014971
 C                 -2.56616557    0.08427848    0.00854229
 C                 -3.42713857   -1.15718752   -0.00406471
 H                 -2.72344957    0.68924248    0.90386729
 H                 -2.73902057    0.71842748   -0.86339571
 H                 -3.23702157   -1.74637152   -0.90190571
 H                 -3.22001257   -1.77601752    0.86973229
 H                 -4.48090557   -0.87386052    0.01059629
 O                  4.49937243   -0.60400952    0.08889429
 H                  4.60164943    0.24062048   -0.37252671

