%chk=ethyl_propiolate.chk 
%nprocshared=24 
%mem=12GB 
# ccsd(t)/6-311++g(d,p) sp 

Title Card Required

0 2
 C                  2.17109600   -0.40696200   -0.05891900
 H                  3.68571700   -1.03571000   -0.25231700
 C                  1.06643200    0.07310000   -0.01570800
 C                 -0.28380700    0.61458800   -0.00490300
 O                 -0.51802700    1.79007900    0.01229100
 O                 -1.19390400   -0.35425200   -0.01027900
 C                 -2.56685900    0.08420900    0.00858800
 C                 -3.42743300   -1.15726400   -0.00410900
 H                 -2.72397900    0.68901900    0.90404100
 H                 -2.73971200    0.71856200   -0.86321900
 H                 -3.23724900   -1.74626900   -0.90206500
 H                 -3.22010200   -1.77612900    0.86961300
 H                 -4.48125300   -0.87421200    0.01063900
 O                  4.50551100   -0.60201400    0.09391200
 H                  4.58495600    0.22496000   -0.39602500

