%chk=ethyl_propiolate.chk 
%nprocshared=24 
%mem=12GB 
# ccsd(t)/6-311++g(d,p) sp 

Title Card Required

0 2
 C                  3.27836000   -0.52363600   -0.44109900
 H                  4.27156300   -0.79100000   -0.71725500
 C                  2.16107000   -0.22434300   -0.13025500
 C                  0.82193900    0.18379200    0.25929400
 O                  0.56440400    1.24208200    0.76970500
 O                 -0.07205600   -0.76349600   -0.01871400
 C                 -1.42109900   -0.49071800    0.36171600
 C                 -2.29351000   -1.62933800   -0.08762400
 H                 -1.46472100   -0.28115300    1.43240000
 H                 -1.75948900    0.43947800   -0.17184900
 H                 -2.21449200   -1.76402900   -1.16685800
 H                 -2.00454800   -2.55906600    0.40628000
 H                 -3.33195100   -1.40688800    0.16142900
 O                 -1.91802700    1.79773900   -0.70699800
 H                 -1.19351800    2.19446100   -0.18959000

