%chk=ethyl_propiolate.chk 
%nprocshared=24 
%mem=12GB 
# ccsd(t)/6-311++g(d,p) sp 

Title Card Required

0 2
 C                  3.27819500   -0.52371900   -0.44102500
 H                  4.27164800   -0.79064300   -0.71696900
 C                  2.16070700   -0.22495100   -0.13042800
 C                  0.82388300    0.18585400    0.26013000
 O                  0.56565900    1.24161500    0.77100900
 O                 -0.07686100   -0.76071600   -0.01948700
 C                 -1.41851900   -0.48291900    0.35556900
 C                 -2.29460500   -1.61986300   -0.09037700
 H                 -1.47069400   -0.24509800    1.42007000
 H                 -1.75847800    0.52346800   -0.20397900
 H                 -2.21447800   -1.76298000   -1.16829100
 H                 -1.99785800   -2.54515200    0.40994700
 H                 -3.33310200   -1.40216700    0.16045900
 O                 -1.91623700    1.77299100   -0.69878000
 H                 -1.20091700    2.19051300   -0.18903000

