%chk=ethyl_propiolate.chk
%nprocshared=4
%mem=150MW
# opt=(calcfc,tight,ts,noeigentest) freq 6-311++g(d,p) m062x

Title Card Required

0 2
 C                  1.67270900    0.21168500   -0.05553000
 H                  2.95645900    0.86804800   -0.02362900
 C                  0.62974900   -0.41156700   -0.04348400
 C                 -0.65244200   -1.12559100    0.01483700
 O                 -0.70321000   -2.28123500    0.33407500
 O                 -1.75257600   -0.44029500   -0.31393900
 C                 -1.68193000    0.95995900   -0.62288600
 C                 -1.71293000    1.79578100    0.64288600
 H                 -0.78849700    1.16346400   -1.21989700
 H                 -2.56240400    1.14170700   -1.24134100
 H                 -2.59706800    1.54996300    1.23603400
 H                 -0.82053800    1.61479600    1.24822100
 H                 -1.74532000    2.85903200    0.38886100
 O                  3.95245500    0.50718200   -0.10539600
 H                  4.05308500   -0.06382900    0.67889200

