%chk=ethyl_propiolate.chk
%nprocshared=24
%mem=12GB
# opt=(calcfc,tight,ts,noeigentest) freq 6-311++g(d,p) m062x

Title Card Required

0 2
 O                  4.585353   -0.342233    0.320154
 H                  4.707347    0.569136   -0.018781
 C                  2.289635   -0.190234   -0.088193
 H                  3.773546   -0.778109   -0.126999
 C                  1.105902    0.091725   -0.114597
 C                 -0.293362    0.440960   -0.173081
 O                 -0.733480    1.574888    0.010367
 O                 -1.071073   -0.631407   -0.461237
 C                 -2.525762   -0.410583   -0.530120
 C                 -3.125834   -0.386563    0.864077
 H                 -2.878044   -1.255497   -1.119975
 H                 -2.704063    0.524583   -1.065836
 H                 -4.214648   -0.303392    0.796799
 H                 -2.881840   -1.307038    1.399895
 H                 -2.752163    0.468494    1.432110

