%chk=ethyl_propiolate.chk
%nprocshared=24
%mem=12GB
# opt=(calcfc,tight,ts,noeigentest) freq 6-31+g m062x

Title Card Required

0 2
 O                  3.95245500    0.50718200   -0.10539600
 H                  4.05308500   -0.06382900    0.67889200
 C                  1.76024248    0.36071621    0.06946286
 H                  2.80305921    0.88037655    0.04400946
 C                  0.69703591   -0.18993491    0.10930994
 C                 -0.56865668   -0.90829391    0.17531787
 O                 -0.66934855   -2.04809242    0.53606291
 O                 -1.58063893   -0.13038222   -0.20975490
 C                 -2.88796379   -0.73895623   -0.19950193
 C                 -3.09920211   -1.59753901   -1.43111743
 H                 -3.57252508    0.10700297   -0.17597300
 H                 -2.99544971   -1.32076205    0.71666024
 H                 -4.11992258   -1.98477087   -1.43589333
 H                 -2.94912383   -1.00744649   -2.33640640
 H                 -2.41071889   -2.44269444   -1.43433467

