%nprocshared=4
%mem=150MW
%chk=ethyl_propiolate.chk
# opt=(calcfc,tight,ts,noeigentest) freq 6-311++g(d,p) m062x

Title Card Required

0 2
 C                  2.50557800    1.29181800   -0.60774200
 H                  3.12259200    2.11688900   -0.89144200
 C                  1.82161300    0.35344800   -0.28785700
 C                  1.04820600   -0.81836400    0.12544000
 O                  1.56135200   -1.85755000    0.42597100
 O                 -0.29248500   -0.67122100    0.16155100
 C                 -0.90517300    0.54844300   -0.22604000
 C                 -1.10113100    1.48726900    0.93408100
 H                 -0.41420300    0.98324300   -1.10039800
 H                 -1.99621400    0.19382200   -0.59591700
 H                 -1.64751500    0.98077600    1.73304900
 H                 -0.13244000    1.82283000    1.32154900
 H                 -1.67279800    2.36279700    0.61687000
 O                 -3.11288400   -0.50491800   -0.62865500
 H                 -2.72184400   -1.36652500   -0.38194600

