%nprocshared=4
%mem=150MW
%chk=ethyl_propiolate.chk
# irc=(calcfc,maxpoints=10,maxcycle=900,stepsize=5) 6-311++g(d,p) geom=connectivity m062x

Title Card Required

0 2
 C                  2.51444100    1.23278000   -0.67878300
 H                  3.14333300    2.03068200   -0.99933400
 C                  1.81353900    0.32959900   -0.31778800
 C                  1.03131200   -0.81665700    0.14394900
 O                  1.53682100   -1.84600800    0.46839300
 O                 -0.30356900   -0.65353500    0.18787400
 C                 -0.91457600    0.57398600   -0.19386400
 C                 -1.05815400    1.52779200    0.96232700
 H                 -0.43806500    0.99389300   -1.08134300
 H                 -1.98919600    0.23581500   -0.53876500
 H                 -1.57801500    1.04001500    1.78780000
 H                 -0.07476900    1.85912800    1.30798500
 H                 -1.63106100    2.40334400    0.65353300
 O                 -3.11255200   -0.53492000   -0.68555900
 H                 -2.71719600   -1.37217900   -0.39057900

 1 2 1.0 3 3.0
 2
 3 4 1.0
 4 5 2.0 6 1.0
 5
 6 7 1.0
 7 8 1.0 9 1.0
 8 11 1.0 12 1.0 13 1.0
 9
 10
 11
 12
 13
 14 15 1.0
 15

