%chk=ethyl_propiolate.chk
%nprocshared=24
%mem=12GB
# opt=(calcfc,tight,ts,noeigentest) freq 6-311++g(d,p) m062x

Title Card Required

0 2
 O                  2.294180    1.674228   -0.301931
 H                  1.461292    1.863458    0.198474
 C                 -3.406147    0.195289   -0.484658
 H                 -4.429337    0.257470   -0.778980
 C                 -2.247409    0.130830   -0.150338
 C                 -0.869842    0.096432    0.265039
 O                 -0.265208    1.050502    0.760571
 O                 -0.303316   -1.115271    0.057798
 C                  1.098885   -1.303970    0.462840
 C                  2.050429   -0.802771   -0.592508
 H                  1.171566   -2.386221    0.587869
 H                  1.254252   -0.811405    1.426840
 H                  3.076572   -1.136326   -0.423895
 H                  1.715539   -1.000676   -1.611974
 H                  2.189369    0.443178   -0.532089

