%chk=ethyl_propiolate.chk
%nprocshared=24
%mem=12GB
# opt=(calcfc,tight,ts,noeigentest) freq 6-311++g(d,p) m062x

Title Card Required

0 2
 O                 -4.124286    1.376678   -0.065187
 H                 -4.847606    0.844607    0.355397
 C                  3.429296    1.213282    0.470549
 H                  4.292169    1.765738    0.765287
 C                  2.452676    0.588881    0.130570
 C                  1.296589   -0.145547   -0.323658
 O                  0.988637   -0.306718   -1.503497
 O                  0.581884   -0.652439    0.713835
 C                 -0.638440   -1.406119    0.386270
 C                 -1.793619   -0.454788    0.127468
 H                 -0.796906   -2.022582    1.270237
 H                 -0.429792   -2.036421   -0.481196
 H                 -2.709996   -1.029914   -0.044771
 H                 -1.945477    0.206306    0.984765
 H                 -1.611288    0.157838   -0.758120

