%chk=ethyl_propiolate.chk
%nprocshared=24
%mem=12GB
# opt=(calcfc,tight,ts,noeigentest) freq 6-31+g m062x

Title Card Required

0 2
 O                 -1.87430731    0.71939025   -2.05855174
 H                 -0.99970944    1.11049496   -2.31408639
 C                  2.93658915    2.09614343    0.37490212
 H                  3.58112692    2.90109086    0.64556541
 C                  2.20650087    1.18595898    0.06219724
 C                  1.33830891    0.11330575   -0.35958762
 O                  1.04693164   -0.13293744   -1.52890117
 O                  0.87971510   -0.60837240    0.69540376
 C                 -0.03684709   -1.72128536    0.40238234
 C                 -1.45204807   -1.20420482    0.21190514
 H                  0.05807849   -2.36125408    1.27871842
 H                  0.32814080   -2.24129145   -0.48626234
 H                 -2.13390018   -2.04905768    0.06532975
 H                 -1.77413716   -0.63628059    1.08870897
 H                 -1.54110351   -0.39876814   -0.88702982

