%chk=ethyl_propiolate.chk
%nprocshared=24
%mem=12GB
# opt=(calcfc,tight,ts,noeigentest) freq 6-31+g m062x

Title Card Required

0 2
 O                 -3.71873400    0.39667100   -0.13599100
 H                 -4.25694000   -0.27278400    0.32412200
 C                 -0.67859424   -0.01164846    5.66278123
 H                 -0.83550797    0.16712309    6.70064926
 C                 -0.50238641   -0.21353140    4.49513114
 C                 -0.23753523   -0.42983308    3.07899489
 O                  0.75814140   -0.05676877    2.52323635
 O                 -1.23865716   -1.09437331    2.50134718
 C                 -1.09534404   -1.35644174    1.09055052
 C                 -1.45384645   -0.13316570    0.26973719
 H                 -1.78073978   -2.18134360    0.90455496
 H                 -0.07237340   -1.68158424    0.89763144
 H                 -1.40953558   -0.38023439   -0.79272937
 H                 -2.46576480    0.19971498    0.50530568
 H                 -0.75357803    0.67951281    0.46334755

