%oldchk=C:\G09W\Scratch\ethyl_propiolate.chk
%nprocshared=4
%mem=150MW
%chk=ethyl_propiolate_ts1.chk
# uccsd(t)/6-311++g(d,p) sp

Title Card Required

0 2
 C                  1.76692000    0.15922900   -0.00002600
 H                  2.76698500   -0.21861400   -0.00003700
 C                  0.64893900    0.59473300   -0.00001400
 C                 -0.68846000    1.18740300   -0.00000100
 O                 -0.86183700    2.36969900    0.00000400
 O                 -1.71917400    0.33296400    0.00000700
 C                 -1.48771400   -1.08595100    0.00000400
 C                 -2.84499700   -1.75083200    0.00001000
 H                 -0.90963300   -1.35664000   -0.88679000
 H                 -0.90962400   -1.35664200    0.88679100
 H                 -3.41184200   -1.46167800    0.88561400
 H                 -3.41185000   -1.46167800   -0.88558900
 H                 -2.72429500   -2.83550000    0.00001000
 O                  4.89340400   -0.89432200   -0.00005600
 H                  5.73299400   -0.40346300    0.00052900

