%nprocshared=4
%mem=150MW
%chk=ethyl_propiolate.chk
# uccsd(t)/6-311++g(d,p) sp

Title Card Required

0 2
 C                 -3.47095400   -0.15470400   -0.00004900
 H                 -4.52484700   -0.30765500   -0.00007800
 C                 -2.28553300    0.01579400   -0.00001600
 C                 -0.85554700    0.27634700    0.00002900
 O                 -0.38866200    1.38788600    0.00010200
 O                 -0.15283400   -0.84569900   -0.00002000
 C                  1.28550900   -0.69933500    0.00002200
 C                  1.87588600   -2.08893100    0.00000200
 H                  1.57494800   -0.12968900   -0.88602500
 H                  1.57490500   -0.12972800    0.88610600
 H                  1.56258600   -2.64113500    0.88667700
 H                  1.56262200   -2.64109700   -0.88670800
 H                  2.96455600   -2.01814700    0.00002600
 O                  2.36648000    2.15581600   -0.00008100
 H                  1.38919700    2.18839700    0.00006400

