%nprocshared=4
%mem=150MW
%chk=ethyl_propiolate.chk
# opt=(calcfc,tight,ts,noeigentest) freq 6-311++g(d,p) m062x

Title Card Required

0 2
 C                  2.31606658   -0.46437096   -0.08841118
 H                  3.31710513   -0.84142213   -0.15411168
 C                  1.20943958    0.01445104   -0.04341018
 C                 -0.14388242    0.55952204   -0.03043418
 O                 -0.38009642    1.73488604   -0.01413318
 O                 -1.05580642   -0.40862896   -0.03644618
 C                 -2.42920742    0.02989704   -0.01775418
 C                 -3.29018042   -1.21156896   -0.03036118
 H                 -2.58649142    0.63486104    0.87757082
 H                 -2.60206242    0.66404604   -0.88969218
 H                 -3.10006342   -1.80075296   -0.92820218
 H                 -3.08305442   -1.83039896    0.84343582
 H                 -4.34394742   -0.92824196   -0.01570018
 O                  4.66462015   -0.55331495    0.11236493
 H                  4.76689715    0.29131505   -0.34905607

