%nprocshared=4
%mem=150MW
%chk=ethyl_propiolate.chk
# opt=(calcfc,tight,noeigentest) freq 6-311++g(d,p) m062x

Title Card Required

0 2
 C                  3.48135100    0.15406600   -0.00004400
 H                  4.53863600    0.30669100   -0.00007000
 C                  2.28939200   -0.01748600   -0.00001600
 C                  0.85760000   -0.27704100    0.00002500
 O                  0.38742400   -1.39447600    0.00009900
 O                  0.15312600    0.84715200   -0.00002500
 C                 -1.28497800    0.69886500    0.00002300
 C                 -1.87710500    2.08927100    0.00000300
 H                 -1.57367000    0.12801500   -0.88789600
 H                 -1.57361500    0.12805700    0.88798300
 H                 -1.56401800    2.64329000    0.88786700
 H                 -1.56406300    2.64325000   -0.88790100
 H                 -2.96737600    2.01753100    0.00003300
 O                 -2.37760800   -2.14802400   -0.00007600
 H                 -1.39699100   -2.19010600    0.00006200

