%nprocshared=24
%mem=12GB
%chk=ethyl_propiolate_ts1.chk
# opt=(calcfc,tight,noeigentest) freq 6-311++g** m062x

Title Card Required

0 2
 C                  2.175820   -0.012048    0.015142
 H                  3.212210   -0.281787    0.020156
 C                  1.007466    0.299180    0.009277
 C                 -0.370179    0.720700    0.001768
 O                 -0.751559    1.891160   -0.003982
 O                 -1.227270   -0.333983    0.001578
 C                 -2.662814   -0.020422   -0.004987
 C                 -3.388171   -1.347919   -0.003797
 H                 -2.883695    0.584197    0.878749
 H                 -2.876837    0.578881   -0.894014
 H                 -3.120441   -1.931757   -0.887339
 H                 -3.126976   -1.926551    0.885103
 H                 -4.469361   -1.182900   -0.008270
 O                  5.291316   -0.723562    0.008757
 H                  6.192465   -0.345949   -0.149631

