%nprocshared=4
%mem=150MW
%chk=ethyl_propiolate.chk
# uccsd(t)/6-311++g(d,p) sp

Title Card Required

0 2
 C                 -2.08042600    1.81123500   -0.00000500
 H                 -2.88500500    2.50914800    0.00000100
 C                 -1.17957800    1.02159100   -0.00001200
 C                 -0.18005100   -0.03236100   -0.00002000
 O                 -0.46652100   -1.20501600   -0.00003800
 O                  1.05538000    0.44117200   -0.00000600
 C                  2.10898100   -0.54657100   -0.00001200
 C                  3.41906700    0.20488100    0.00003300
 H                  1.98954700   -1.17584300    0.88407500
 H                  1.98958100   -1.17579500   -0.88413800
 H                  3.50020600    0.83531100   -0.88612800
 H                  3.50017300    0.83526100    0.88623400
 H                  4.24823900   -0.50428300    0.00002900
 O                 -3.39025000   -1.07401900    0.00004600
 H                 -2.45958500   -1.37354900    0.00000500

