%oldchk=C:\G09W\Scratch\ethyl_propiolate.chk
%nprocshared=4
%mem=150MW
%chk=ethyl_propiolate_ts1.chk
# opt=(calcfc,tight,noeigentest) freq 6-311++g(d,p) m062x

Title Card Required

0 2
 C                  1.76692000    0.15922900   -0.00002600
 H                  2.76698500   -0.21861400   -0.00003700
 C                  0.64893900    0.59473300   -0.00001400
 C                 -0.68846000    1.18740300   -0.00000100
 O                 -0.86183700    2.36969900    0.00000400
 O                 -1.71917400    0.33296400    0.00000700
 C                 -3.07058027    0.82346843    0.00001997
 C                 -3.97556597   -0.38702105    0.00003116
 H                 -3.22939582    1.44171799    0.88681131
 H                 -3.22941360    1.44171508   -0.88676969
 H                 -3.79652244   -0.99765266   -0.88557043
 H                 -3.79650646   -0.99764842    0.88563257
 H                 -5.01905336   -0.06732162    0.00003926
 O                  4.89340400   -0.89432200   -0.00005600
 H                  5.73299400   -0.40346400    0.00052900

