%chk=ethyl_propiolate_non_planar.chk
%mem=12GB
%nprocshared=24
# CCSD(T)/6-311++G(d,p) SP

Title Card Required

0 1
 C                  1.414944    1.944352   -0.085428
 H                  1.702379    2.969638   -0.112917
 C                  1.099797    0.787822   -0.052642
 C                  0.804325   -0.646251    0.021079
 O                  1.632728   -1.437447    0.359229
 O                 -0.429037   -1.030792   -0.322792
 C                 -1.451009   -0.066162   -0.624699
 C                 -2.094042    0.459998    0.643344
 H                 -2.165899   -0.620138   -1.230797
 H                 -1.031543    0.738162   -1.231954
 H                 -2.918614    1.129526    0.390712
 H                 -2.485943   -0.366265    1.237810
 H                 -1.374000    1.016437    1.245724

