%chk=ethyl_propiolate.chk
# CCSD(T)/6-311++G(d,p) SP

Title Card Required

0 1
 C                  1.41025200    1.94727700   -0.08508300
 H                  1.69517800    2.97326500   -0.11235800
 C                  1.09849000    0.78981000   -0.05234200
 C                  0.80649600   -0.64537200    0.02149400
 O                  1.63786000   -1.43452200    0.35655700
 O                 -0.42748600   -1.03221000   -0.31720900
 C                 -1.45011000   -0.06989300   -0.62459900
 C                 -2.09740700    0.45810300    0.64030500
 H                 -1.02978500    0.73363900   -1.23268700
 H                 -2.16231400   -0.62683200   -1.23144700
 H                 -2.48275900   -0.36840900    1.23889800
 H                 -1.38205200    1.02332000    1.24012300
 H                 -2.92758100    1.11932200    0.38403300

