%chk=ethyl_propiolate.chk
%nprocshared=24
%mem=12GB
# m062x/6-311++G(d,p) opt=(tight,calcfc,noeigentest) freq

Title Card Required

0 1
 C                  1.423431    1.967319   -0.077876
 H                  1.702559    2.996550   -0.102908
 C                  1.123986    0.795923   -0.044347
 C                  0.834529   -0.627555    0.019653
 O                  1.671193   -1.456667    0.348716
 O                 -0.424223   -1.024278   -0.318020
 C                 -1.485619   -0.061872   -0.631496
 C                 -2.144767    0.434952    0.642381
 H                 -1.069993    0.755712   -1.227371
 H                 -2.174030   -0.638905   -1.247589
 H                 -2.512565   -0.409492    1.229661
 H                 -1.440711    1.006128    1.254101
 H                 -2.990361    1.084961    0.398642

