%chk=ethyl_propiolate_non_planar.chk
%mem=12GB
%nprocshared=24
# opt=(calcfc,tight,noeigentest) freq 6-311++g(d,p) geom=connectivity m062x

Title Card Required

0 1
 C                 -2.07021100   -1.62607900   -0.00000300
 H                 -2.61908800   -2.53892500    0.00000500
 C                 -1.46188800   -0.59278500    0.00000300
 C                 -0.78404700    0.70553100    0.00000000
 O                 -1.38963200    1.73491500    0.00000000
 O                  0.55313600    0.67993800   -0.00000200
 C                  1.25822000   -0.57370500   -0.00000100
 C                  2.73355400   -0.24507800    0.00000100
 H                  0.97530700   -1.14499100   -0.88725400
 H                  0.97530500   -1.14499300    0.88724900
 H                  3.31740200   -1.16701800   -0.00000300
 H                  2.99463600    0.33490600   -0.88559400
 H                  2.99463500    0.33489800    0.88560200

 1 2 1.0 3 3.0
 2
 3 4 1.0
 4 5 2.0 6 1.5
 5
 6 7 1.0
 7 8 1.0 9 1.0 10 1.0
 8 11 1.0 12 1.0 13 1.0
 9
 10
 11
 12
 13

