%chk=ethyl_propiolate.chk
%nprocshared=24
%mem=12GB
# ccsd(t)/6-311++G(d,p) sp

Title Card Required

0 1
 C                  1.41494100    1.94435300   -0.08542900
 H                  1.70237500    2.96963900   -0.11291800
 C                  1.09979600    0.78782200   -0.05264200
 C                  0.80432500   -0.64625000    0.02107900
 O                  1.63272900   -1.43744600    0.35922900
 O                 -0.42903600   -1.03079300   -0.32279200
 C                 -1.45100800   -0.06616300   -0.62469900
 C                 -2.09404100    0.45999700    0.64334500
 H                 -1.03154300    0.73816100   -1.23195400
 H                 -2.16589900   -0.62013900   -1.23079600
 H                 -2.48594200   -0.36626600    1.23781100
 H                 -1.37399800    1.01643600    1.24572400
 H                 -2.91861400    1.12952600    0.39071300

