%chk=ethyl_propiolate_non_planar.chk
%mem=12GB
%nprocshared=24
# m062x/6-311++g** opt=(tight,calcfc,noeigentest) freq geom=connectivity

Title Card Required

0 1
 C                 -1.90141274    1.15708458   -0.03016563
 H                 -2.97137406    1.15875849   -0.03910875
 C                 -0.70025618    1.15520740   -0.02012373
 C                  0.83968810    1.15280307   -0.00724644
 O                  1.46259973    1.80619160    0.86947193
 O                  1.56178224    0.40808352   -0.99155983
 C                  1.79402789   -0.91827566   -0.51017299
 C                  2.57166773   -1.72028133   -1.57020279
 H                  0.85669745   -1.39699146   -0.31744825
 H                  2.36482835   -0.87477272    0.39381503
 H                  2.74544595   -2.71273190   -1.21000425
 H                  2.00086728   -1.76378427   -2.47419081
 H                  3.50899817   -1.24156552   -1.76292753

 1 2 1.0 3 3.0
 2
 3 4 1.0
 4 5 2.0 6 1.0
 5
 6 7 1.0
 7 8 1.0 9 1.0 10 1.0
 8 11 1.0 12 1.0 13 1.0
 9
 10
 11
 12
 13

