%chk=ethyl_propiolate_non_planar.chk
%mem = 12GB
%nprocshared = 24
# ccsd(t)/6-311++g(d,p) sp

Title Card Required

0 1
 C                  3.028681   -0.450019   -0.287410
 H                  4.039027   -0.738052   -0.460582
 C                  1.891843   -0.126550   -0.092010
 C                  0.525270    0.322660    0.138343
 O                  0.196644    1.476473    0.149827
 O                 -0.291307   -0.712433    0.336638
 C                 -1.678905   -0.391428    0.562671
 C                 -2.390699   -0.099642   -0.743803
 H                 -1.734600    0.456468    1.246319
 H                 -2.078940   -1.278802    1.049872
 H                 -3.452620    0.066098   -0.552247
 H                 -1.982220    0.795183   -1.213632
 H                 -2.290474   -0.943348   -1.428198

