%chk=ethyl_propiolate_non_planar.chk
%mem=12GB
%nprocshared=24
# opt=(calcfc,tight,noeigentest) freq 6-31+g m062x

Title Card Required

0 1
 C                 -0.26858723   -1.76111854    1.87622466
 H                 -0.77088448   -2.57110203    2.36256223
 C                  0.29529922   -0.85181732    1.33025324
 C                  1.01822937    0.31395379    0.63028916
 O                  2.22398427    0.55700647    0.89609188
 O                  0.38224421    1.04769389   -0.23604221
 C                 -0.98793311    0.77150049   -0.53808741
 C                 -1.06454618   -0.22402856   -1.71054310
 H                 -1.48366892    1.68025696   -0.80884132
 H                 -1.46420372    0.34778057    0.32128895
 H                 -2.08978376   -0.43069076   -1.93654895
 H                 -0.58827557    0.19969135   -2.56991947
 H                 -0.56881037   -1.13278504   -1.43978919

