%chk=ethyl_propiolate_non_planar.chk
%mem=12GB
%nprocshared=24
# ccsd(t)/6-311++g(d,p) sp

Title Card Required

0 2
 C                 -2.73128100   -0.46512900   -0.44891800
 H                 -3.75944300   -0.51919600   -0.72168400
 C                 -1.56747300   -0.35342600   -0.15534300
 C                 -0.16590400   -0.54869100    0.22381200
 O                  0.16971200   -0.88839100    1.32326200
 O                  0.63812500   -0.33697400   -0.81001600
 C                  2.05194200   -0.42326100   -0.53887600
 C                  2.54163600    0.84425400    0.13228800
 H                  2.50149900   -0.56241600   -1.52029000
 H                  2.23854000   -1.30413400    0.07648000
 H                  3.62356200    0.79342800    0.26922900
 H                  2.30640400    1.71319300   -0.48354200
 H                  2.07404300    0.96505100    1.10977300
 O                 -1.34596900    1.75137400    0.10456800
 H                 -1.97913900    1.83289100    0.83604300

