%nprocshared=24
%mem=12GB
%chk=ethyl_propiolate_ts1.chk
# ccsd(t)/6-311++g(d,p) sp

Title Card Required

0 2
C       -2.79300500     -0.49267700     -0.43551900
H       -3.82295800     -0.53204700     -0.70379200
C       -1.62691700     -0.41641100     -0.14907600
C       -0.22416800     -0.57602900      0.23566700
O        0.11512200     -0.88796900      1.34258700
O        0.57948600     -0.37469600     -0.80100900
C        1.99340100     -0.45766400     -0.53000200
C        2.48635800      0.81958400      0.11970100
H        2.44169800     -0.61371500     -1.50948600
H        2.17945000     -1.32853600      0.09966700
H        3.56842800      0.76909600      0.25570000
H        2.25183600      1.67881100     -0.50990300
H        2.02044700      0.95699200      1.09574400
O       -1.39731600      1.75978300      0.08472600
H       -2.03124900      1.83163000      0.81701300

