%nprocshared=24
%mem=12GB
%chk=ethyl_propiolate_ts1.chk
# freq 6-31+g m062x

Title Card Required

0 2
C       -2.71810400     -0.48188800     -0.44677300
H       -3.74422000     -0.55956200     -0.72597100
C       -1.55855600     -0.14524100     -0.12670300
C       -0.16416300     -0.53581900      0.22591700
O        0.16365200     -0.89637500      1.31936500
O        0.63767500     -0.34032400     -0.81059200
C        2.05315500     -0.42532600     -0.53972600
C        2.54039700      0.84335800      0.13168500
H        2.50220100     -0.56351700     -1.52135800
H        2.24053300     -1.30630400      0.07497200
H        3.62224900      0.79243000      0.26924800
H        2.30425800      1.71210700     -0.48379000
H        2.07223500      0.96473400      1.10886800
O       -1.35840700      1.61778700      0.08732500
H       -1.97446300      1.78147000      0.81428900

