%nprocshared=24
%mem=12GB
%chk=ethyl_propiolate_ts1.chk
# freq 6-31+g m062x

Title Card Required

0 2
C       -2.72781600     -0.46613200     -0.44789200
H       -3.75464200     -0.53474300     -0.72302800
C       -1.56585000     -0.31342000     -0.14959800
C       -0.16509100     -0.54320100      0.22481400
O        0.16794400     -0.89065800      1.32214300
O        0.63811500     -0.33757500     -0.81021100
C        2.05225300     -0.42397200     -0.53914800
C        2.54127100      0.84388900      0.13206900
H        2.50164500     -0.56286600     -1.52063300
H        2.23905700     -1.30489100      0.07600500
H        3.62316600      0.79319600      0.26929200
H        2.30580200      1.71274600     -0.48373300
H        2.07347000      0.96477600      1.10947800
O       -1.34882800      1.72327100      0.10085100
H       -1.97901600      1.82507500      0.83173200
