%nprocshared=24
%mem=12GB
%chk=ethyl_propiolate_ts1.chk
# ccsd(t)/6-311++g(d,p) sp

Title Card Required

0 2
C       -2.78893200     -0.49143000     -0.43817200
H       -3.81732500     -0.54762100     -0.70963300
C       -1.62483100     -0.37749100     -0.14662200
C       -0.22315900     -0.56976500      0.23367700
O        0.11294200     -0.89776600      1.33652600
O        0.58032700     -0.36995400     -0.80294000
C        1.99426000     -0.45444000     -0.53184200
C        2.48544100      0.81989700      0.12516900
H        2.44302700     -0.60462200     -1.51199200
H        2.18057200     -1.32872300      0.09292600
H        3.56742000      0.76968100      0.26191600
H        2.25048500      1.68228100     -0.49991100
H        2.01862100      0.95169300      1.10160200
O       -1.40144800      1.72982900      0.09024000
H       -2.03404700      1.81980900      0.82121800

