%nprocshared=24
%mem=12GB
%chk=ethyl_propiolate_ts1.chk
# ccsd(t)/6-311++g(d,p) sp

Title Card Required

0 2
C       -2.77007800     -0.50454600     -0.45708700
H       -3.79772600     -0.56354700     -0.73810000
C       -1.61367700     -0.12572000     -0.12178700
C       -0.22177900     -0.56339900      0.21625700
O        0.10598100     -0.95103000      1.30063500
O        0.58191800     -0.34399000     -0.81462300
C        1.99736800     -0.43274000     -0.54449300
C        2.48165200      0.82088400      0.15696200
H        2.44777800     -0.54700200     -1.52857300
H        2.18591800     -1.32745100      0.04961100
H        3.56344700      0.76858400      0.29444900
H        2.24467700      1.70343200     -0.43824400
H        2.01241400      0.91859600      1.13630000
O       -1.42080500      1.56421900      0.12323800
H       -2.03418000      1.72692200      0.85145200

