%chk=ethyl_propiolate_non_planar.chk
%mem=12GB
%nprocshared=24
# freq 6-311++g(d,p) m062x

Title Card Required

0 2
 C                 -2.71633000   -0.48472900   -0.44660600
 H                 -3.74327300   -0.55645600   -0.72560300
 C                 -1.55767900   -0.12405400   -0.12388400
 C                 -0.16467600   -0.53537800    0.22587000
 O                  0.16324600   -0.89696100    1.31902700
 O                  0.63768200   -0.34064400   -0.81063000
 C                  2.05321600   -0.42548700   -0.53979000
 C                  2.54031500    0.84330500    0.13165000
 H                  2.50236100   -0.56358500   -1.52138800
 H                  2.24073500   -1.30641600    0.07490900
 H                  3.62216200    0.79241700    0.26926300
 H                  2.30416800    1.71205700   -0.48382400
 H                  2.07216000    0.96468600    1.10884400
 O                 -1.35969700    1.60487400    0.08572000
 H                 -1.97391700    1.77684000    0.81168300

