%nprocshared=24
%mem=12GB
%chk=ethyl_propiolate_ts1.chk
# freq 6-311++g(d,p) m062x

Title Card Required

0 2
C       -2.76406400     -0.50967500     -0.46089900
H       -3.79435300     -0.54595800     -0.74058900
C       -1.61232400     -0.08462500     -0.11649400
C       -0.22333600     -0.56372000      0.21233200
O        0.10524800     -0.96082900      1.29343400
O        0.58249400     -0.33883000     -0.81675300
C        1.99791600     -0.42809300     -0.54667700
C        2.48077700      0.82146200      0.16334900
H        2.44913800     -0.53525200     -1.53119400
H        2.18733100     -1.32643000      0.04158900
H        3.56254600      0.76923400      0.30105200
H        2.24345300      1.70779800     -0.42611400
H        2.01116200      0.91224900      1.14320600
O       -1.42496000      1.53634100      0.12916300
H       -2.03534700      1.71281100      0.85562500

