%chk=ethyl_propiolate_non_planar.chk
%mem=12GB
%nprocshared=24
# ccsd(t)/6-311++g(d,p) sp

Title Card Required

0 2
 C                 -2.72513527   -0.46861086   -0.44733070
 H                 -3.75105327   -0.54656686   -0.72414070
 C                 -1.56419227   -0.27211486   -0.14388770
 C                 -0.16434327   -0.53996686    0.22541730
 O                  0.16656773   -0.89240086    1.32129630
 O                  0.63795773   -0.33828286   -0.81034170
 C                  2.05252573   -0.42441286   -0.53934770
 C                  2.54099573    0.84368514    0.13192130
 H                  2.50167573   -0.56307186   -1.52094070
 H                  2.23948073   -1.30541386    0.07558030
 H                  3.62288373    0.79291914    0.26920230
 H                  2.30527373    1.71249614   -0.48377270
 H                  2.07309473    0.96470114    1.10927030
 O                 -1.35135027    1.69613114    0.09732130
 H                 -1.97802627    1.81473214    0.82770830

