%chk=ethyl_propiolate_non_planar.chk
%mem=12GB
%nprocshared=24
# irc=(calcfc,maxpoints=10,maxcycle=900,stepsize=5) 6-311++g(d,p) m062x

Title Card Required

0 2
 C                 -2.72280000   -0.47191700   -0.44700800
 H                 -3.74804100   -0.55626600   -0.72533900
 C                 -1.56248800   -0.23026300   -0.13818200
 C                 -0.16373200   -0.53770400    0.22582600
 O                  0.16538700   -0.89392300    1.32056700
 O                  0.63779200   -0.33900800   -0.81044700
 C                  2.05278500   -0.42476200   -0.53947900
 C                  2.54075000    0.84355500    0.13182500
 H                  2.50178700   -0.56327200   -1.52112100
 H                  2.23984900   -1.30578200    0.07533900
 H                  3.62262000    0.79268600    0.26924000
 H                  2.30483800    1.71233100   -0.48377000
 H                  2.07269400    0.96475500    1.10908000
 O                 -1.35371700    1.66949900    0.09387100
 H                 -1.97701900    1.80349400    0.82351900

