%nprocshared=24
%mem=12GB
%chk=ethyl_propiolate_ts1.chk
# ccsd(t)/6-311++g(d,p) sp

Title Card Required

0 2
C       -2.78697000     -0.49116300     -0.43950300
H       -3.81462800     -0.55446900     -0.71247600
C       -1.62388100     -0.35749300     -0.14523500
C       -0.22268500     -0.56738300      0.23262300
O        0.11195200     -0.90244100      1.33356700
O        0.58059100     -0.36780200     -0.80389100
C        1.99462400     -0.45280000     -0.53277200
C        2.48501400      0.82005000      0.12782100
H        2.44355500     -0.60008100     -1.51326700
H        2.18111700     -1.32875600      0.08955700
H        3.56696000      0.76981800      0.26481400
H        2.24986400      1.68402200     -0.49496600
H        2.01784800      0.94912000      1.10447200
O       -1.40336800      1.71518300      0.09290700
H       -2.03472000      1.81354900      0.82359400

