%nprocshared=24
%mem=12GB
%chk=ethyl_propiolate_ts1.chk
# freq 6-311++g(d,p) m062x

Title Card Required

0 2
C       -2.79686000     -0.49494400     -0.43283000
H       -3.82817700     -0.51536400     -0.69794600
C       -1.62923600     -0.45363200     -0.15108300
C       -0.22536600     -0.58408600      0.23764900
O        0.11734300     -0.87747600      1.34890400
O        0.57816900     -0.38054200     -0.79902300
C        1.99229800     -0.46090000     -0.52807200
C        2.48722000      0.81934000      0.11395600
H        2.44002200     -0.62295100     -1.50687600
H        2.17845900     -1.32812600      0.10664800
H        3.56941800      0.76813800      0.24883500
H        2.25324000      1.67537000     -0.52019900
H        2.02258700      0.96269700      1.08968800
O       -1.39277400      1.79082300      0.07866300
H       -2.02579200      1.84311200      0.81378100

