%nprocshared=24
%mem=12GB
%chk=ethyl_propiolate_ts1.chk
# ccsd(t)/6-311++g(d,p) sp

Title Card Required

0 2
C       -2.77958400     -0.49349100     -0.44673700
H       -3.80473500     -0.57661000     -0.72576800
C       -1.61941900     -0.25319700     -0.13630300
C       -0.22064900     -0.56222200      0.22630700
O        0.10833300     -0.92443000      1.31912300
O        0.58104800     -0.35750600     -0.80865900
C        1.99600700     -0.44432500     -0.53784800
C        2.48342000      0.82038700      0.14062100
H        2.44527600     -0.57722400     -1.52014300
H        2.18320800     -1.32869700      0.07209600
H        3.56527400      0.76909200      0.27799900
H        2.24737400      1.69250400     -0.47017900
H        2.01510300      0.93599500      1.11842900
O       -1.41129800      1.64530900      0.10637500
H       -2.03480900      1.77504200      0.83661500

