%nprocshared=24
%mem=12GB
%chk=ethyl_propiolate_ts1.chk
# freq 6-31+g m062x

Title Card Required

0 2
C       -2.72951200     -0.46549500     -0.44837100
H       -3.75700300     -0.52715800     -0.72234700
C       -1.56664100     -0.33356700     -0.15246200
C       -0.16550500     -0.54573300      0.22434700
O        0.16879800     -0.88957000      1.32268300
O        0.63815100     -0.33724500     -0.81011700
C        2.05210300     -0.42364600     -0.53901800
C        2.54144700      0.84405200      0.13217300
H        2.50158700     -0.56266800     -1.52046500
H        2.23880200     -1.30454300      0.07623500
H        3.62335600      0.79332100      0.26927300
H        2.30609800      1.71294200     -0.48365900
H        2.07374000      0.96488400      1.10961800
O       -1.34743100      1.73722300      0.10268600
H       -1.97918900      1.82926500      0.83384700
