%nprocshared=24
%mem=12GB
%chk=ethyl_propiolate_ts1.chk
# freq 6-311++g(d,p) m062x

Title Card Required

0 2
C       -2.77437300     -0.50007400     -0.45346500
H       -3.80022600     -0.57401800     -0.73463500
C       -1.61538800     -0.16775700     -0.12689600
C       -0.22081000     -0.56287100      0.21989100
O        0.10668200     -0.94180100      1.30720600
O        0.58148800     -0.34877100     -0.81257800
C        1.99688300     -0.43692800     -0.54227300
C        2.48234900      0.82055200      0.15114000
H        2.44670700     -0.55777700     -1.52583500
H        2.18479700     -1.32813200      0.05733500
H        3.56416500      0.76840300      0.28852500
H        2.24568700      1.69949100     -0.44948700
H        2.01342900      0.92464500      1.12995200
O       -1.41724300      1.59154500      0.11749800
H       -2.03394000      1.74207900      0.84675700

