%nprocshared=24
%mem=12GB
%chk=ethyl_propiolate_ts1.chk
# freq 6-311++g(d,p) m062x

Title Card Required

0 2
C       -2.79995300     -0.49840400     -0.43020700
H       -3.83230100     -0.49976200     -0.69251100
C       -1.63151700     -0.48883900     -0.15252200
C       -0.22671800     -0.59350800      0.23986800
O        0.11929600     -0.86629800      1.35559800
O        0.57644600     -0.38830500     -0.79695500
C        1.99097100     -0.46419200     -0.52593300
C        2.48760700      0.81942900      0.10786200
H        2.43814600     -0.63227000     -1.50399800
H        2.17807000     -1.32735100      0.11410300
H        3.56999300      0.76735900      0.24118000
H        2.25404300      1.67209800     -0.53095400
H        2.02474700      0.96907000      1.08342400
O       -1.38803900      1.82317700      0.07164500
H       -2.01667500      1.85535300      0.81204500

