%nprocshared=24
%mem=12GB
%chk=ethyl_propiolate_ts1.chk
# ccsd(t)/6-311++g(d,p) sp

Title Card Required

0 2
C       -2.78214900     -0.49196900     -0.44372000
H       -3.80806700     -0.56992500     -0.72053000
C       -1.62120600     -0.29547300     -0.14027700
C       -0.22135700     -0.56332500      0.22902800
O        0.10955400     -0.91575900      1.32490700
O        0.58094400     -0.36164100     -0.80673100
C        1.99551200     -0.44777100     -0.53573700
C        2.48398200      0.82032700      0.13553200
H        2.44466200     -0.58643000     -1.51733000
H        2.18246700     -1.32877200      0.07919100
H        3.56587000      0.76956100      0.27281300
H        2.24826000      1.68913800     -0.48016200
H        2.01608100      0.94134300      1.11288100
O       -1.40836400      1.67277300      0.10093200
H       -2.03504000      1.79137400      0.83131900

