%nprocshared=24
%mem=12GB
%chk=ethyl_propiolate_ts1.chk
# freq 6-311++g(d,p) m062x

Title Card Required

0 2
C       -2.77849800     -0.49479100     -0.44835000
H       -3.80350800     -0.57799600     -0.72817000
C       -1.61841700     -0.23178500     -0.13409200
C       -0.22047300     -0.56223500      0.22480700
O        0.10786100     -0.92869700      1.31623800
O        0.58111100     -0.35539500     -0.80962400
C        1.99622600     -0.44256000     -0.53894300
C        2.48317300      0.82039200      0.14316500
H        2.44556200     -0.57254400     -1.52158600
H        2.18354900     -1.32863400      0.06846600
H        3.56501900      0.76882600      0.28052900
H        2.24696800      1.69417900     -0.46515000
H        2.01469600      0.93323500      1.12121500
O       -1.41269900      1.63188100      0.10913000
H       -2.03454000      1.76649700      0.83922400

