%nprocshared=24
%mem=12GB
%chk=ethyl_propiolate_ts1.chk
# freq 6-31+g m062x

Title Card Required

0 2
C       -2.72637800     -0.46716200     -0.44754600
H       -3.75268300     -0.54117700     -0.72359000
C       -1.56502600     -0.29291500     -0.14672900
C       -0.16468200     -0.54132100      0.22516900
O        0.16720600     -0.89160000      1.32168600
O        0.63804100     -0.33791800     -0.81028500
C        2.05239300     -0.42422100     -0.53927000
C        2.54112700      0.84376100      0.13198300
H        2.50164000     -0.56297000     -1.52082500
H        2.23928200     -1.30520100      0.07573600
H        3.62302100      0.79304000      0.26921500
H        2.30551500      1.71259400     -0.48375900
H        2.07329200      0.96469300      1.10937200
O       -1.35014300      1.70958400      0.09906100
H       -1.97855900      1.82015300      0.82974000
