%nprocshared=24
%mem=12GB
%chk=ethyl_propiolate_ts1.chk
# ccsd(t)/6-311++g(d,p) sp

Title Card Required

0 2
C       -2.77599400     -0.49810500     -0.45171900
H       -3.80132500     -0.57680500     -0.73262400
C       -1.61635400     -0.18901700     -0.12936800
C       -0.22055100     -0.56260500      0.22160000
O        0.10704800     -0.93735700      1.31030400
O        0.58132900     -0.35104000     -0.81158100
C        1.99665800     -0.43887800     -0.54116100
C        2.48264600      0.82046300      0.14840100
H        2.44627100     -0.56285500     -1.52443400
H        2.18433200     -1.32836000      0.06109800
H        3.56447300      0.76846500      0.28576500
H        2.24613600      1.69765600     -0.45483800
H        2.01387300      0.92756600      1.12695300
O       -1.41564400      1.60504400      0.11468500
H       -2.03405700      1.75000800      0.84429700

