%nprocshared=24
%mem=12GB
%chk=ethyl_propiolate_ts1.chk
# freq 6-31+g m062x

Title Card Required

0 2
C       -2.71420600     -0.48765800     -0.44636300
H       -3.74221900     -0.55155100     -0.72496300
C       -1.55687600     -0.10296700     -0.12109700
C       -0.16535600     -0.53487400      0.22580800
O        0.16283000     -0.89754800      1.31865800
O        0.63769600     -0.34096200     -0.81067200
C        2.05326200     -0.42566400     -0.53985300
C        2.54023200      0.84324700      0.13161400
H        2.50253700     -0.56366200     -1.52140600
H        2.24095200     -1.30652900      0.07485800
H        3.62207400      0.79242200      0.26928300
H        2.30409700      1.71200500     -0.48386900
H        2.07209800      0.96461900      1.10883100
O       -1.36105900      1.59192900      0.08412100
H       -1.97346900      1.77263000      0.80889600
