%chk=ethyl_propiolate_non_planar.chk
%mem=12GB
%nprocshared=24
# freq 6-311++g(d,p) m062x

Title Card Required

0 2
 C                 -2.72389200   -0.47005900   -0.44711600
 H                 -3.74942300   -0.55195600   -0.72469100
 C                 -1.56335900   -0.25131500   -0.14104600
 C                 -0.16400400   -0.53861300    0.22566600
 O                  0.16593000   -0.89320200    1.32090600
 O                  0.63787400   -0.33864700   -0.81039900
 C                  2.05265900   -0.42460500   -0.53942500
 C                  2.54086500    0.84361000    0.13185900
 H                  2.50171100   -0.56317400   -1.52105600
 H                  2.23967900   -1.30562700    0.07542500
 H                  3.62274600    0.79279900    0.26919000
 H                  2.30503300    1.71239800   -0.48378600
 H                  2.07289800    0.96470900    1.10916800
 O                 -1.35255700    1.68267800    0.09558100
 H                 -1.97749300    1.80931200    0.82567600

