%nprocshared=24
%mem=12GB
%chk=ethyl_propiolate_ts1.chk
# freq 6-31+g m062x

Title Card Required

0 2
C       -2.71956900     -0.47915300     -0.44687600
H       -3.74511600     -0.56097300     -0.72609700
C       -1.55950100     -0.16649300     -0.12955000
C       -0.16381800     -0.53623100      0.22594300
O        0.16405800     -0.89578400      1.31967800
O        0.63768000     -0.34000100     -0.81055500
C        2.05308100     -0.42517600     -0.53966300
C        2.54048000      0.84340800      0.13172000
H        2.50206200     -0.56345400     -1.52131700
H        2.24034500     -1.30618700      0.07504600
H        3.62233700      0.79246200      0.26923800
H        2.30436900      1.71215800     -0.48376900
H        2.07232300      0.96476300      1.10890300
O       -1.35717900      1.63068000      0.08893900
H       -1.97507900      1.78648700      0.81674800

