%oldchk=C:\G09W\Scratch\ethyl_propiolate.chk
%nprocshared=4
%mem=150MW
%chk=ethyl_propiolate_ts1.chk
# opt=(calcfc,tight,ts,noeigentest) freq 6-311++g(d,p) m062x

Title Card Required

0 2
 C                  2.10887000    1.07643500   -0.83733500
 H                  2.77570300    1.81080400   -1.23416200
 C                  1.29792900    0.32101600   -0.32418500
 C                  0.60355800   -0.93472400    0.04919000
 O                  1.20706500   -1.82719900    0.57696400
 O                 -0.69048000   -1.03337800   -0.23875300
 C                 -1.45370900    0.05409000   -0.78468500
 C                 -2.52631100    0.44619500    0.21009300
 H                 -0.80216400    0.89915100   -1.01649800
 H                 -1.88550400   -0.32545000   -1.71469900
 H                 -3.14659800   -0.41763600    0.46178200
 H                 -2.06158900    0.83192900    1.11959700
 H                 -3.16566500    1.22340900   -0.21848200
 O                  0.35865000    1.45079400    1.04287500
 H                  1.10190700    1.47797800    1.67530800

