%oldchk=C:\G09W\Scratch\ethyl_propiolate.chk
%nprocshared=4
%mem=150MW
%chk=ethyl_propiolate_ts1.chk
# ccsd(t)/6-311++g(d,p) sp

Title Card Required

0 2
 C                 -2.10191000   -1.06352400   -0.84810100
 H                 -2.76895600   -1.77841900   -1.27248200
 C                 -1.29805600   -0.32284800   -0.31369900
 C                 -0.61104800    0.93672400    0.06125800
 O                 -1.22243900    1.82418200    0.57549200
 O                  0.68203200    1.03280300   -0.21313900
 C                  1.45492900   -0.04255400   -0.78039100
 C                  2.54309400   -0.43124500    0.19617200
 H                  0.81213300   -0.89111700   -1.01349000
 H                  1.86929400    0.35442200   -1.70838100
 H                  3.15691400    0.43502000    0.44648700
 H                  2.09974100   -0.83338300    1.10694100
 H                  3.18231700   -1.19492600   -0.25164600
 O                 -0.35533000   -1.47387900    1.03415100
 H                 -1.10760400   -1.61575400    1.62910500

