%oldchk=C:\G09W\Scratch\ethyl_propiolate.chk
%nprocshared=4
%mem=150MW
%chk=ethyl_propiolate_ts1.chk
# opt=(calcfc,tight,ts,noeigentest) freq 6-311++g(d,p) m062x

Title Card Required

0 2
 O                  0.35865000    1.45079400    1.04287500
 H                  1.10190700    1.47797800    1.67530800
 C                  0.71493544   -0.63030433    0.57087077
 H                  0.13499540   -1.46016287    0.90065188
 C                  1.36705131    0.30336945    0.19910362
 C                  2.20576442    1.41703680   -0.22360171
 O                  3.36609821    1.52280588    0.06250122
 O                  1.51360037    2.28248208   -0.96485006
 C                  2.23780222    3.43875055   -1.43190534
 C                  2.35243816    4.48684570   -0.34240181
 H                  1.64868545    3.79634788   -2.27445523
 H                  3.21927600    3.11807295   -1.78301705
 H                  2.83741667    5.37901744   -0.74323474
 H                  1.36288075    4.76578744    0.02263027
 H                  2.95080764    4.11433858    0.48916274

