%nprocshared=24
%mem=12GB
%chk=ethyl_propiolate_ts1.chk
# opt=(calcfc,tight,ts,noeigentest) freq 6-311++g(d,p) m062x

Title Card Required

0 2
 O                  -1.350926   -1.656192   -0.175308
 H                  -2.135993   -1.907542   -0.719412
 C                  -2.817445    0.449288    0.445818
 H                  -3.844369    0.539592    0.719815
 C                  -1.642131    0.256971    0.141368
 C                  -0.256776    0.570711   -0.199023
 O                   0.092145    1.035466   -1.280267
 O                   0.575161    0.299727    0.827084
 C                   2.020965    0.418848    0.571795
 C                   2.510857   -0.795938   -0.195265
 H                   2.446902    0.481368    1.571853
 H                   2.199056    1.348565    0.026602
 H                   3.596941   -0.745750   -0.317539
 H                   2.259575   -1.711154    0.345447
 H                   2.054031   -0.836371   -1.186993

