%chk=ethyl_propiolate.chk
%nprocshared=4
%mem=1GB
# irc=(calcfc,maxpoints=10,maxcycle=900,stepsize=5) 6-311++g(d,p) geom=connectivity m062x

Title Card Required

0 2
 C                 -1.52096400   -1.30484500   -0.36315800
 H                 -2.02840200   -2.23035700   -0.52131500
 C                 -0.65563200   -0.44925900   -0.30450600
 C                 -0.02161800    0.84918800   -0.06618600
 O                 -0.69213800    1.78596300    0.26543400
 O                  1.29209900    0.94614500   -0.24115400
 C                  2.06931900   -0.22991400   -0.53271900
 C                  2.40206200   -0.98879100    0.73600000
 H                  1.53128600   -0.85330400   -1.25139100
 H                  2.96536900    0.15729600   -1.01466000
 H                  2.91758400   -0.33670000    1.44209100
 H                  1.49778600   -1.37577200    1.20959100
 H                  3.05279700   -1.83330400    0.50107100
 O                 -3.19053400   -0.39393500    0.27690300
 H                 -2.85082700    0.50847900    0.40857300

 1 2 1.0 3 3.0
 2
 3 4 1.0
 4 5 2.0 6 1.5
 5
 6 7 1.0
 7 8 1.0 9 1.0 10 1.0
 8 11 1.0 12 1.0 13 1.0
 9
 10
 11
 12
 13
 14 15 1.0
 15

