%chk=ethyl_propiolate.chk
%nprocshared=4
%mem=1GB
# opt=(calcfc,tight,ts,noeigentest) freq 6-311++g(d,p) m062x

Title Card Required

0 2
 C                 -1.52368200   -1.35494000   -0.32198300
 H                 -2.05304000   -2.27538100   -0.45126300
 C                 -0.62998500   -0.52032400   -0.28579800
 C                 -0.04859300    0.80586000   -0.06294700
 O                 -0.75947100    1.72614600    0.25598600
 O                  1.26363700    0.96066700   -0.22990200
 C                  2.07866100   -0.18031800   -0.54167900
 C                  2.45447300   -0.93650500    0.71810000
 H                  1.55315600   -0.82126700   -1.25735500
 H                  2.95598500    0.24197400   -1.03391500
 H                  2.94408200   -0.26657500    1.42901600
 H                  1.56733300   -1.36519000    1.19341300
 H                  3.14121800   -1.75209800    0.47498100
 O                 -3.17245500   -0.33515700    0.25561400
 H                 -2.74767800    0.54264800    0.35737300

