%chk=ethyl_propiolate.chk
%nprocshared=24
%mem=12GB
# opt=(calcfc,tight,ts,noeigentest) freq 6-31+g m062x

Title Card Required

0 2
 O                 -3.17245500   -0.33515700    0.25561400
 H                 -2.74767800    0.54264800    0.35737300
 C                 -1.57856518   -1.33681346   -0.32671078
 H                 -2.02890038   -2.27949099   -0.53240109
 C                 -1.07122773   -0.27656892   -0.09497197
 C                 -0.50720114    1.03380939    0.20025192
 O                 -1.15489797    1.96458860    0.59211333
 O                  0.80801904    1.04842824   -0.01773402
 C                  1.47775333    2.30169814    0.22790039
 C                  1.28982462    3.25709058   -0.93424024
 H                  2.52208622    2.02224171    0.35477688
 H                  1.09764903    2.72455388    1.15855506
 H                  1.86691496    4.16661030   -0.75652641
 H                  1.63977534    2.80135119   -1.86166511
 H                  0.24026291    3.53124027   -1.04180119

