%chk=ethyl_propiolate.chk
%nprocshared=24
%mem=12GB
# opt=(calcfc,tight,ts,noeigentest) freq 6-311++g(d,p) m062x

Title Card Required

0 2
 O                  3.411411    0.738716    0.125607
 H                  2.691975    1.389034   -0.075550
 C                  2.425900   -0.980830    0.258750
 H                  3.323516   -1.522901    0.460849
 C                  1.242474   -0.715111    0.060910
 C                  0.004244   -0.031159   -0.206804
 O                 -0.052413    1.187145   -0.400572
 O                 -1.066543   -0.852338   -0.229182
 C                 -2.385470   -0.243730   -0.484231
 C                 -2.931798    0.388128    0.783011
 H                 -2.986195   -1.086637   -0.821984
 H                 -2.273282    0.486614   -1.288691
 H                 -3.943698    0.762273    0.601761
 H                 -2.975437   -0.348533    1.588750
 H                 -2.308629    1.228174    1.098223

