%chk=ethyl_propiolate.chk
%nprocshared=4
%mem=1GB
# irc=(calcfc,maxpoints=10,maxcycle=900,stepsize=5) 6-311++g(d,p) geom=connectivity m062x

Title Card Required

0 2
 C                  1.35219300   -1.37281000   -1.14578500
 H                  1.71916800   -2.24783200   -1.63107600
 C                  0.95819200   -0.42118300   -0.49738500
 C                  0.41147200    0.92541300   -0.20238100
 O                  1.02600900    1.90628000   -0.49465900
 O                 -0.77251000    0.97711600    0.39500200
 C                 -1.51872900   -0.22311500    0.67599200
 C                 -2.36537300   -0.61827900   -0.51755000
 H                 -0.83656800   -1.01549300    0.98539700
 H                 -2.13883800    0.04801300    1.52895000
 H                 -3.01938400    0.20448200   -0.80929000
 H                 -1.73962800   -0.88836400   -1.37042800
 H                 -2.98307200   -1.48134500   -0.26081900
 O                  1.44339200   -0.84296200    1.39512400
 H                  2.39665800   -0.68309400    1.31618600

 1 2 1.0 3 3.0
 2
 3 4 1.0
 4 5 2.0 6 1.5
 5
 6 7 1.0
 7 8 1.0 9 1.0 10 1.0
 8 11 1.0 12 1.0 13 1.0
 9
 10
 11
 12
 13
 14 15 1.0
 15

