%chk=ethyl_propiolate.chk
%nprocshared=24
%mem=12GB
# ccsd(t)/6-311++g** sp

Title Card Required

0 2
 O                  2.100506    1.375958    0.080528
 H                  2.957453    1.271412    0.560693
 C                  2.490718   -1.126703   -0.632268
 H                  3.353641   -1.614346   -1.026432
 C                  1.539713   -0.482949   -0.194001
 C                  0.197283   -0.225769    0.320161
 O                 -0.164412   -0.509610    1.458519
 O                 -0.588677    0.345323   -0.615338
 C                 -1.955575    0.718389   -0.214237
 C                 -2.875372   -0.487907   -0.267930
 H                 -2.228583    1.482524   -0.940350
 H                 -1.908514    1.151440    0.787644
 H                 -3.901728   -0.181085   -0.045355
 H                 -2.857700   -0.936596   -1.264229
 H                 -2.574505   -1.237088    0.468001

