%chk=ethyl_propiolate.chk
%nprocshared=4
%mem=1GB
# opt=(calcfc,tight,ts,noeigentest) freq 6-311++g(d,p) m062x

Title Card Required

0 2
 O                  1.44350268   -1.07652418    1.18190149
 H                  1.74214658   -0.16788624    1.37824488
 C                  0.67287544    0.72953890   -0.27705418
 H                  0.26136676    1.62698300    0.12170129
 C                  1.13544454   -0.28063278   -0.72515646
 C                  1.74853259   -1.48081835   -1.27837619
 O                  2.89275384   -1.54054873   -1.63419428
 O                  0.87393379   -2.48596750   -1.32620762
 C                  1.36427340   -3.72800283   -1.87070831
 C                  1.38051319   -3.69003907   -3.38628008
 H                  0.66744252   -4.47451862   -1.49392504
 H                  2.35834002   -3.91922855   -1.46491447
 H                  1.68342141   -4.66500377   -3.77297383
 H                  0.38631133   -3.45903527   -3.77161203
 H                  2.08813521   -2.94264462   -3.74541763

