%chk=ethyl_propiolate.chk
%nprocshared=24
%mem=12GB
# opt=(calcfc,tight,ts,noeigentest) freq 6-31+g m062x

Title Card Required

0 2
 O                  2.04909696    1.48570816    0.05189819
 H                  2.97026396    1.52921316   -0.30745581
 C                  2.63193176   -0.98510196   -0.50593398
 H                  3.58228976   -1.35478996   -0.81738298
 C                  1.54900076   -0.58523896   -0.14550998
 C                  0.25770776   -0.14022596    0.33501202
 O                 -0.10880824   -0.21266496    1.50554802
 O                 -0.50306924    0.35654704   -0.66832698
 C                 -1.80827724    0.92531104   -0.30002998
 C                 -2.84748124   -0.17138896   -0.14920698
 H                 -2.03078724    1.59771004   -1.12745198
 H                 -1.67943624    1.49523504    0.62316602
 H                 -3.82901824    0.27224404    0.04331502
 H                 -2.91045624   -0.76526196   -1.06450798
 H                 -2.59766524   -0.82800796    0.68720202

