%chk=ethyl_propiolate.chk
%nprocshared=24
%mem=12GB
# opt=(calcfc,tight,ts,noeigentest) freq 6-311++g(d,p) m062x

Title Card Required

0 2
 O                   1.835917    1.855419    0.154149
 H                   2.757084    1.898924   -0.205205
 C                   2.597670   -1.226844   -0.534320
 H                   3.548028   -1.596532   -0.845769
 C                   1.514739   -0.826981   -0.173896
 C                   0.223446   -0.381968    0.306626
 O                  -0.143070   -0.454407    1.477162
 O                  -0.537331    0.114805   -0.696713
 C                  -1.842539    0.683569   -0.328416
 C                  -2.881743   -0.413131   -0.177593
 H                  -2.065049    1.355968   -1.155838
 H                  -1.713698    1.253493    0.594780
 H                  -3.863280    0.030502    0.014929
 H                  -2.944718   -1.007004   -1.092894
 H                  -2.631927   -1.069750    0.658816

