%chk=ethyl_propiolate.chk
%nprocshared=24
%mem=12GB
# opt=(calcfc,tight,ts,noeigentest) freq 6-311++g(d,p) m062x

Title Card Required

0 2
 O                   2.655611   -1.447864    0.004461
 H                   1.707508   -1.666766   -0.181541
 C                   2.575397    0.515621    0.263257
 H                   3.625829    0.590141    0.441394
 C                   1.392001    0.811110    0.114726
 C                  -0.030013    0.822694   -0.109216
 O                  -0.760938    1.808283   -0.095945
 O                  -0.472128   -0.447313   -0.351515
 C                  -1.916996   -0.628788   -0.587514
 C                  -2.669356   -0.658616    0.730148
 H                  -1.967292   -1.578469   -1.118227
 H                  -2.258641    0.182324   -1.234385
 H                  -3.726922   -0.870264    0.546804
 H                  -2.269223   -1.439038    1.381885
 H                  -2.597818    0.305100    1.239657

