%chk=ethyl_propiolate.chk
%nprocshared=4
%mem=1GB
# opt=(calcfc,tight,ts,noeigentest) freq 6-311++g(d,p) m062x

Title Card Required

0 2
 O                  2.22591545   -0.84306025    0.62892452
 H                  3.13554581   -0.50808617    0.75069318
 C                  1.88546798    0.21585625   -0.94678350
 H                  0.95408849    0.51798611   -0.52845225
 C                  2.93363417   -0.12432516   -1.41671635
 C                  4.20591887   -0.49171968   -2.02391268
 O                  4.74636783    0.15309462   -2.87921726
 O                  4.67753818   -1.62273723   -1.49864111
 C                  5.93072032   -2.09588084   -2.03271543
 C                  5.72477656   -2.81261805   -3.35276759
 H                  6.30808381   -2.76790220   -1.26407454
 H                  6.60756972   -1.24746360   -2.13980149
 H                  6.67533079   -3.22469263   -3.69698087
 H                  5.01536671   -3.63286489   -3.23354687
 H                  5.35373992   -2.12351659   -4.11156809

