%chk=ethyl_propiolate.chk
%nprocshared=24
%mem=12GB
# opt=(calcfc,tight,ts,noeigentest) freq 6-311++g(d,p) m062x

Title Card Required

0 2
 O                  -3.411397    0.738728   -0.125575
 H                  -2.691939    1.389027    0.075568
 C                  -2.425904   -0.980829   -0.258761
 H                  -3.323525   -1.522893   -0.460859
 C                  -1.242472   -0.715126   -0.060929
 C                  -0.004247   -0.031166    0.206786
 O                   0.052401    1.187141    0.400536
 O                   1.066543   -0.852339    0.229190
 C                   2.385464   -0.243721    0.484245
 C                   2.931801    0.388127   -0.782998
 H                   2.986192   -1.086621    0.822013
 H                   2.273264    0.486630    1.288696
 H                   3.943705    0.762260   -0.601749
 H                   2.975432   -0.348537   -1.588735
 H                   2.308642    1.228180   -1.098213

