%chk=ethyl_propiolate.chk
%nprocshared=4
%mem=1GB
# opt=(calcfc,tight,ts,noeigentest) freq 6-311++g(d,p) m062x

Title Card Required

0 2
 C                  1.81342900    0.21577800    0.96596700
 H                  2.67737800   -0.02827800    1.54601100
 C                  0.74109900    0.64934400    0.57756300
 C                 -0.47437400    1.15445600   -0.06522600
 O                 -0.48817300    2.21955900   -0.62252200
 O                 -1.56468900    0.38496600    0.00308900
 C                 -1.49619400   -0.93536100    0.56801600
 C                 -0.94567700   -1.93195000   -0.43493700
 H                 -0.90123000   -0.91331300    1.48599800
 H                 -2.53051300   -1.16132600    0.83170700
 H                 -1.53912600   -1.90544300   -1.35259100
 H                  0.10022600   -1.71678800   -0.67419500
 H                 -0.99852600   -2.94192400   -0.01784900
 O                  2.43142300   -0.86542500   -0.65150900
 H                  2.33361200   -0.15932100   -1.31984500

