%chk=ethyl_propiolate.chk
%nprocshared=4
%mem=1GB
# ccsd(t)/6-311++g(d,p) sp

Title Card Required

0 2
 C                  1.79070900   -0.01614800    1.01087400
 H                  2.60259700   -0.38096300    1.59821900
 C                  0.77534800    0.53077100    0.62514600
 C                 -0.35486500    1.17013100   -0.04999200
 O                 -0.22594200    2.22438300   -0.60193300
 O                 -1.52326900    0.53122500   -0.01231000
 C                 -1.61901400   -0.79966400    0.53301900
 C                 -1.13513100   -1.83687000   -0.46060700
 H                 -1.06692000   -0.84808100    1.47419200
 H                 -2.67984000   -0.91475200    0.74878900
 H                 -1.69185700   -1.74956100   -1.39489800
 H                 -0.06881500   -1.72400900   -0.66729300
 H                 -1.29910400   -2.83648000   -0.05248500
 O                  2.37271800   -0.96148700   -0.68501700
 H                  2.47360400   -0.18843500   -1.26308600

