%chk=ethyl_propiolate_non_planar.chk
%mem=12GB
%nprocshared=24
# ccsd(t)/6-311++g** sp

Title Card Required

0 2
 C                  2.80150000   -0.43685700    0.40315700
 H                  3.84400200   -0.48235900    0.61848300
 C                  1.62894000   -0.27902100    0.12247900
 C                  0.22007300   -0.60044600   -0.15375200
 O                 -0.14188200   -1.17344700   -1.13940200
 O                 -0.56062300   -0.17778800    0.83706300
 C                 -1.98006500   -0.32919000    0.62697400
 C                 -2.50282400    0.75824200   -0.29049800
 H                 -2.40529200   -0.25673600    1.62633300
 H                 -2.17015700   -1.32361000    0.22175000
 H                 -3.58545700    0.66190700   -0.39311200
 H                 -2.27772200    1.74345600    0.12006700
 H                 -2.05263800    0.67529200   -1.27995400
 O                  1.46315400    1.63774600   -0.40378400
 H                  1.55632700    2.01359600    0.48525700

