%chk=ethyl_propiolate_non_planar.chk
%mem=12GB
%nprocshared=24
# opt=(calcfc,tight,ts,noeigentest) freq 6-311++g(d,p) m062x

Title Card Required

0 2
 C                  2.440444   -1.290250    0.154186
 H                  3.317158   -1.875849    0.318076
 C                  1.520036   -0.488021    0.009866
 C                  0.189303   -0.025830   -0.362468
 O                 -0.034943    0.999425   -1.004030
 O                 -0.768780   -0.888026    0.045121
 C                 -2.168597   -0.540593   -0.262265
 C                 -2.687990    0.483870    0.729853
 H                 -2.684522   -1.496217   -0.183397
 H                 -2.210278   -0.171757   -1.289546
 H                 -3.746719    0.680914    0.537066
 H                 -2.585345    0.111540    1.751801
 H                 -2.141673    1.425272    0.636532
 O                  2.310726    1.239909    0.574443
 H                  2.236178    1.680579   -0.309834

