%chk=ethyl_propiolate.chk 
%nprocshared=24 
%mem=12GB 
# ccsd(t)/6-311++g(d,p) sp 

Title Card Required

0 2
 C                 -1.76267400   -0.14375000    1.05046500
 H                 -2.57892500   -0.59897400    1.56120600
 C                 -0.80599600    0.41665800    0.57836300
 C                  0.33276900    1.12645300   -0.01228000
 O                  0.40309200    2.31944800    0.02001400
 O                  1.27096300    0.37868100   -0.59205000
 C                  1.18884000   -1.06235100   -0.58157100
 C                  1.75824300   -1.62603300    0.70480800
 H                  0.15584300   -1.37516400   -0.74692400
 H                  1.78569000   -1.36149600   -1.44170400
 H                  2.78201700   -1.27890900    0.85078500
 H                  1.15838900   -1.32613100    1.56588000
 H                  1.76298500   -2.71674800    0.65719000
 O                 -2.36624000   -1.16338200   -0.80500800
 H                 -2.54844000   -0.35192600   -1.30703000

