%chk=ethyl_propiolate.chk 
%nprocshared=24 
%mem=12GB 
# ccsd(t)/6-311++g(d,p) sp 

Title Card Required

0 2
 C                 -1.76727500   -0.15216900    1.03386500
 H                 -2.57982800   -0.60170400    1.55583500
 C                 -0.80650600    0.41613400    0.57681300
 C                  0.33266400    1.12631000   -0.01235000
 O                  0.40268900    2.31938600    0.02034900
 O                  1.27106000    0.37868000   -0.59173900
 C                  1.18880100   -1.06248300   -0.58163500
 C                  1.75816100   -1.62612500    0.70477300
 H                  0.15581600   -1.37515500   -0.74726900
 H                  1.78585500   -1.36138700   -1.44169600
 H                  2.78192900   -1.27901000    0.85080500
 H                  1.15832300   -1.32624600    1.56589000
 H                  1.76286900   -2.71683800    0.65722600
 O                 -2.36205800   -1.15619500   -0.79178000
 H                 -2.54535500   -0.35123400   -1.30348000

