%chk=ethyl_propiolate.chk 
%nprocshared=24 
%mem=12GB 
# ccsd(t)/6-311++g(d,p) sp 

Title Card Required

0 2
 C                 -1.81012500   -0.22460200    0.89238500
 H                 -2.55271200   -0.58320000    1.57623500
 C                 -0.80207400    0.41995600    0.58088300
 C                  0.33238000    1.12487600   -0.01266000
 O                  0.40058000    2.32004900    0.02127700
 O                  1.27176200    0.37869500   -0.59025000
 C                  1.18786000   -1.06322000   -0.58177500
 C                  1.75786000   -1.62637700    0.70457800
 H                  0.15407800   -1.37426100   -0.74906600
 H                  1.78507000   -1.36147700   -1.44180300
 H                  2.78159300   -1.27919300    0.85061200
 H                  1.15892800   -1.32700000    1.56681400
 H                  1.76222300   -2.71702800    0.65759600
 O                 -2.33311600   -1.10526800   -0.69472000
 H                 -2.53097700   -0.34262700   -1.25804100

