%chk=ethyl_propiolate.chk 
%nprocshared=24 
%mem=12GB 
# ccsd(t)/6-311++g(d,p) sp 

Title Card Required

0 2
 C                 -1.77696300   -0.16953300    0.99965500
 H                 -2.57903200   -0.60299800    1.55189500
 C                 -0.80690900    0.41567900    0.57529800
 C                  0.33265800    1.12605700   -0.01245600
 O                  0.40197900    2.31936800    0.02082900
 O                  1.27117800    0.37868500   -0.59121100
 C                  1.18858400   -1.06278200   -0.58171300
 C                  1.75802700   -1.62625500    0.70471900
 H                  0.15552100   -1.37502400   -0.74783000
 H                  1.78590200   -1.36125100   -1.44170300
 H                  2.78180100   -1.27916200    0.85076900
 H                  1.15833800   -1.32645700    1.56602800
 H                  1.76264500   -2.71695400    0.65731500
 O                 -2.35394100   -1.14229700   -0.76607000
 H                 -2.54060300   -0.34981800   -1.29500900

