%chk=ethyl_propiolate.chk 
%nprocshared=24 
%mem=12GB 
# ccsd(t)/6-311++g(d,p) sp 

Title Card Required

0 2
 C                 -1.74133600   -0.10480300    1.12666600
 H                 -2.56469000   -0.56826200    1.61841800
 C                 -0.80010700    0.42196100    0.59541100
 C                  0.33430800    1.12761300   -0.01067100
 O                  0.40565200    2.32048200    0.01670800
 O                  1.26920700    0.37846000   -0.59434500
 C                  1.18732600   -1.06202600   -0.58072100
 C                  1.75897300   -1.62505100    0.70500100
 H                  0.15376900   -1.37492300   -0.74325500
 H                  1.78173700   -1.36299800   -1.44193700
 H                  2.78294000   -1.27771800    0.84916700
 H                  1.16033100   -1.32500800    1.56676800
 H                  1.76392200   -2.71578500    0.65745100
 O                 -2.38702300   -1.20082300   -0.87417000
 H                 -2.57668200   -0.35887400   -1.32135200

