%chk=ethyl_propiolate.chk 
%nprocshared=24 
%mem=12GB 
# ccsd(t)/6-311++g(d,p) sp 

Title Card Required

0 2
 C                 -1.78217700   -0.17846900    0.98212600
 H                 -2.57682800   -0.60106800    1.55367000
 C                 -0.80664200    0.41588600    0.57535900
 C                  0.33270900    1.12590500   -0.01252400
 O                  0.40168800    2.31941700    0.02098900
 O                  1.27124000    0.37869100   -0.59101100
 C                  1.18843100   -1.06293100   -0.58173000
 C                  1.75796200   -1.62631200    0.70469800
 H                  0.15525500   -1.37489900   -0.74803500
 H                  1.78577700   -1.36129900   -1.44171300
 H                  2.78176800   -1.27933700    0.85076000
 H                  1.15839800   -1.32654000    1.56614700
 H                  1.76240100   -2.71700900    0.65739600
 O                 -2.35008800   -1.13569300   -0.75367800
 H                 -2.53882900   -0.34899700   -1.28988900

