%chk=ethyl_propiolate.chk 
%nprocshared=24 
%mem=12GB 
# ccsd(t)/6-311++g(d,p) sp 

Title Card Required

0 2
 C                 -1.79853500   -0.20599800    0.92857300
 H                 -2.56519300   -0.59190700    1.56535200
 C                 -0.80458100    0.41770000    0.57769500
 C                  0.33275700    1.12541100   -0.01263000
 O                  0.40093800    2.31973800    0.02125200
 O                  1.27146700    0.37873400   -0.59048300
 C                  1.18806400   -1.06320600   -0.58176900
 C                  1.75790000   -1.62634600    0.70463000
 H                  0.15453200   -1.37448600   -0.74872100
 H                  1.78544300   -1.36127400   -1.44176600
 H                  2.78166400   -1.27924900    0.85070100
 H                  1.15868400   -1.32686600    1.56654400
 H                  1.76230600   -2.71700700    0.65748900
 O                 -2.33955000   -1.11698100   -0.71773800
 H                 -2.53366100   -0.34536300   -1.27184500

