%chk=ethyl_propiolate.chk 
%nprocshared=24 
%mem=12GB 
# ccsd(t)/6-311++g(d,p) sp 

Title Card Required

0 2
 C                 -1.47662300   -1.34562100   -0.34970600
 H                 -1.96168100   -2.28294700   -0.51605000
 C                 -0.59315200   -0.50156900   -0.29849000
 C                  0.03947300    0.79780800   -0.05951400
 O                 -0.63128400    1.73434300    0.27204500
 O                  1.35317900    0.89486700   -0.23443200
 C                  2.13033100   -0.28117200   -0.52598800
 C                  2.46306700   -1.04013800    0.74267500
 H                  1.59233800   -0.90456300   -1.24486000
 H                  3.02634700    0.10593700   -1.00807200
 H                  2.97855400   -0.38804100    1.44877500
 H                  1.55882500   -1.42708200    1.21640500
 H                  3.11381700   -1.88463700    0.50776000
 O                 -3.11883700   -0.45183400    0.27928700
 H                 -2.78532200    0.45221900    0.41313800

