%chk=ethyl_propiolate.chk 
%nprocshared=24 
%mem=12GB 
# ccsd(t)/6-311++g(d,p) sp 

Title Card Required

0 2
 C                 -1.54489300   -1.30410900   -0.32233800
 H                 -1.92583200   -2.28747600   -0.52446300
 C                 -0.58263600   -0.50678700   -0.30267000
 C                  0.03899400    0.79735000   -0.05944600
 O                 -0.63203900    1.73382100    0.27189100
 O                  1.35336600    0.89507700   -0.23431800
 C                  2.13051800   -0.28085100   -0.52581100
 C                  2.46306800   -1.04020200    0.74271600
 H                  1.59335200   -0.90432900   -1.24564100
 H                  3.02662800    0.10608700   -1.00789300
 H                  2.97826700   -0.38803600    1.44892700
 H                  1.55887600   -1.42690700    1.21692500
 H                  3.11392100   -1.88469300    0.50809900
 O                 -3.07834700   -0.47702300    0.26284300
 H                 -2.76468600    0.43116100    0.40321600

