%chk=ethyl_propiolate.chk 
%nprocshared=24 
%mem=12GB 
# ccsd(t)/6-311++g(d,p) sp 

Title Card Required

0 2
 C                 -1.52777700   -1.31447800   -0.32920400
 H                 -1.93553300   -2.28744400   -0.52237300
 C                 -0.58564000   -0.50525000   -0.30148600
 C                  0.03927300    0.79755800   -0.05947900
 O                 -0.63182700    1.73386400    0.27190000
 O                  1.35333700    0.89502000   -0.23434900
 C                  2.13046700   -0.28095300   -0.52584500
 C                  2.46305800   -1.04018600    0.74272300
 H                  1.59301600   -0.90440000   -1.24543400
 H                  3.02652600    0.10600100   -1.00798400
 H                  2.97831700   -0.38803200    1.44890600
 H                  1.55885500   -1.42694400    1.21683300
 H                  3.11387700   -1.88468600    0.50805400
 O                 -3.08832300   -0.47079800    0.26689500
 H                 -2.76980700    0.43647100    0.40560100

