%chk=ethyl_propiolate.chk 
%nprocshared=24 
%mem=12GB 
# ccsd(t)/6-311++g(d,p) sp 

Title Card Required

0 2
 C                 -1.37965200   -1.40932700   -0.38968700
 H                 -1.97192500   -2.28580000   -0.51525200
 C                 -0.59714900   -0.49758300   -0.29631300
 C                  0.03856300    0.79829600   -0.05930300
 O                 -0.63073800    1.73631900    0.27262200
 O                  1.35250200    0.89468300   -0.23453000
 C                  2.13045000   -0.28137300   -0.52605700
 C                  2.46291200   -1.03997900    0.74291300
 H                  1.59294600   -0.90478500   -1.24439800
 H                  3.02676100    0.10668600   -1.00682000
 H                  2.97831200   -0.38791500    1.44916600
 H                  1.55846900   -1.42724900    1.21573100
 H                  3.11376700   -1.88446100    0.50810700
 O                 -3.18577400   -0.41075100    0.30616200
 H                 -2.80675000    0.47969100    0.42201500

