%chk=ethyl_propiolate.chk 
%nprocshared=24 
%mem=12GB 
# ccsd(t)/6-311++g(d,p) sp 

Title Card Required

0 2
 C                 -1.33472600   -1.43993900   -0.40861400
 H                 -1.94633900   -2.30378600   -0.52635600
 C                 -0.59459900   -0.49872600   -0.29714600
 C                  0.03781700    0.79837000   -0.05917700
 O                 -0.63112200    1.73672000    0.27293200
 O                  1.35190900    0.89478000   -0.23446800
 C                  2.13092300   -0.28096600   -0.52596800
 C                  2.46288900   -1.03980800    0.74300900
 H                  1.59471200   -0.90423300   -1.24508100
 H                  3.02746500    0.10823800   -1.00534600
 H                  2.97799800   -0.38785100    1.44958300
 H                  1.55843900   -1.42751000    1.21532100
 H                  3.11403400   -1.88407100    0.50817200
 O                 -3.22134100   -0.38777700    0.32085400
 H                 -2.81626000    0.49313200    0.42467100

