%chk=ethyl_propiolate.chk 
%nprocshared=24 
%mem=12GB 
# ccsd(t)/6-311++g(d,p) sp 

Title Card Required

0 2
 C                 -1.41094000   -1.38806100   -0.37661500
 H                 -1.97710100   -2.28080200   -0.51269800
 C                 -0.59736500   -0.49817200   -0.29643700
 C                  0.03895700    0.79805400   -0.05941100
 O                 -0.63080100    1.73563700    0.27238800
 O                  1.35279900    0.89469700   -0.23452400
 C                  2.13034400   -0.28139500   -0.52605800
 C                  2.46296100   -1.04005100    0.74283700
 H                  1.59244300   -0.90482800   -1.24433100
 H                  3.02655900    0.10619800   -1.00738500
 H                  2.97843600   -0.38796700    1.44900800
 H                  1.55854700   -1.42715200    1.21594000
 H                  3.11372400   -1.88458900    0.50801900
 O                 -3.16262600   -0.42508000    0.29682400
 H                 -2.80104600    0.47112700    0.41986100

