%nprocshared=24
%mem=12GB
%chk=ethyl_propiolate_ts1.chk
# freq 6-311++g(d,p) m062x

Title Card Required

0 2
 O                 -1.33633200    1.84106300    0.11710000
 H                 -1.96664200    1.85044500    0.85671700
 C                 -2.74064300   -0.46916800   -0.45369800
 H                 -3.77241700   -0.46589700   -0.71823400
 C                 -1.57283800   -0.46430000   -0.17325200
 C                 -0.16859500   -0.57622900    0.21913000
 O                  0.17578700   -0.87967800    1.32742300
 O                  0.63621300   -0.33943200   -0.80965200
 C                  2.05036000   -0.41911100   -0.53775000
 C                  2.54203100    0.84733500    0.13336800
 H                  2.50010300   -0.55809400   -1.51919900
 H                  2.23850600   -1.29959600    0.07791500
 H                  3.62426900    0.79446600    0.26756400
 H                  2.30744900    1.71717200   -0.48147900
 H                  2.07665700    0.96791900    1.11175400

