%nprocshared=24
%mem=12GB
%chk=ethyl_propiolate_ts1.chk
# freq 6-311++g(d,p) m062x

Title Card Required

0 2
O       -1.41724800      1.59154200      0.11749700
H       -2.03395000      1.74207500      0.84674900
C       -2.77437100     -0.50007400     -0.45347200
H       -3.80022300     -0.57401400     -0.73464700
C       -1.61538700     -0.16775900     -0.12689700
C       -0.22081000     -0.56287100      0.21989500
O        0.10668000     -0.94178900      1.30721400
O        0.58149100     -0.34878100     -0.81257400
C        1.99688500     -0.43693400     -0.54226600
C        2.48234800      0.82055900      0.15112800
H        2.44671200     -0.55779800     -1.52582500
H        2.18479900     -1.32812600      0.05735900
H        3.56416300      0.76841200      0.28852100
H        2.24569200      1.69948800     -0.44951700
H        2.01342100      0.92467000      1.12993500

