%nprocshared=24
%mem=12GB
%chk=ethyl_propiolate_ts1.chk
# freq 6-311++g(d,p) m062x

Title Card Required

0 2
O       -1.42496300      1.53633800      0.12916300
H       -2.03535500      1.71280700      0.85562100
C       -2.76406300     -0.50967400     -0.46090600
H       -3.79435100     -0.54595200     -0.74059900
C       -1.61232300     -0.08462700     -0.11649500
C       -0.22333500     -0.56372100      0.21233700
O        0.10524600     -0.96081800      1.29344200
O        0.58249600     -0.33883900     -0.81675000
C        1.99791800     -0.42809900     -0.54666900
C        2.48077600      0.82146900      0.16333700
H        2.44914200     -0.53527300     -1.53118500
H        2.18733200     -1.32642600      0.04161100
H        3.56254500      0.76924200      0.30105000
H        2.24345800      1.70779400     -0.42614300
H        2.01115400      0.91227300      1.14319000

