%nprocshared=24
%mem=12GB
%chk=ethyl_propiolate_ts1.chk
# freq 6-311++g(d,p) m062x

Title Card Required

0 2
O       -1.40145200      1.72982500      0.09023900
H       -2.03405500      1.81980500      0.82121400
C       -2.78892900     -0.49143000     -0.43817900
H       -3.81732100     -0.54761900     -0.70964400
C       -1.62482900     -0.37749200     -0.14662400
C       -0.22315900     -0.56976400      0.23368200
O        0.11294000     -0.89775400      1.33653300
O        0.58032900     -0.36996300     -0.80293600
C        1.99426200     -0.45444500     -0.53183500
C        2.48544000      0.81990300      0.12515700
H        2.44303100     -0.60464200     -1.51198000
H        2.18057400     -1.32871800      0.09294900
H        3.56741700      0.76968900      0.26191300
H        2.25048900      1.68227700     -0.49993900
H        2.01861400      0.95171700      1.10158500

