%nprocshared=24
%mem=12GB
%chk=ethyl_propiolate_ts1.chk
# freq 6-311++g(d,p) m062x

Title Card Required

0 2
O       -1.40337300      1.71517900      0.09290600
H       -2.03473000      1.81354500      0.82358800
C       -2.78696700     -0.49116300     -0.43950900
H       -3.81462500     -0.55446700     -0.71248700
C       -1.62388100     -0.35749500     -0.14523600
C       -0.22268400     -0.56738300      0.23262600
O        0.11195100     -0.90242800      1.33357600
O        0.58059300     -0.36781300     -0.80388800
C        1.99462600     -0.45280500     -0.53276400
C        2.48501300      0.82005800      0.12780900
H        2.44355900     -0.60010100     -1.51325600
H        2.18111900     -1.32875000      0.08958000
H        3.56695800      0.76982700      0.26480900
H        2.24986600      1.68401900     -0.49499600
H        2.01784000      0.94914500      1.10445300

