%nprocshared=24
%mem=12GB
%chk=ethyl_propiolate_ts1.chk
# freq 6-31+g m062x

Title Card Required

0 2
O       -1.34289700      1.78025000      0.10847200
H       -1.97777000      1.83923200      0.84109400
C       -2.73489500     -0.46526300     -0.45024300
H       -3.76448400     -0.50162200     -0.72033400
C       -1.56924300     -0.39212700     -0.16122200
C       -0.16671900     -0.55613100      0.22250100
O        0.17172500     -0.88569600      1.32456200
O        0.63784800     -0.33676400     -0.80979800
C        2.05156400     -0.42224600     -0.53853000
C        2.54202200      0.84486100      0.13256900
H        2.50119900     -0.56163600     -1.51991000
H        2.23808100     -1.30305600      0.07701900
H        3.62400200      0.79361500      0.26899500
H        2.30705000      1.71396100     -0.48316300
H        2.07479800      0.96564600      1.11018200

