%nprocshared=24
%mem=12GB
%chk=ethyl_propiolate_ts1.chk
# ccsd(t)/6-311++g(d,p) sp

Title Card Required

0 2
 O                 -1.36250700    1.57894400    0.08252800
 H                 -1.97316400    1.76886700    0.80587300
 C                 -2.71168900   -0.49066000   -0.44604000
 H                 -3.74098500   -0.54474100   -0.72403100
 C                 -1.55615400   -0.08201700   -0.11834400
 C                 -0.16620100   -0.53427300    0.22573800
 O                  0.16239100   -0.89813000    1.31825300
 O                  0.63771600   -0.34129100   -0.81071600
 C                  2.05329500   -0.42586200   -0.53990600
 C                  2.54014600    0.84319000    0.13156400
 H                  2.50273200   -0.56376900   -1.52140300
 H                  2.24118400   -1.30663900    0.07483900
 H                  3.62198200    0.79245000    0.26930700
 H                  2.30404700    1.71194600   -0.48395600
 H                  2.07203800    0.96455800    1.10880900

