%nprocshared=24
%mem=12GB
%chk=ethyl_propiolate_ts1.chk
# ccsd(t)/6-311++g(d,p) sp

Title Card Required

0 2
O       -1.39943700      1.74468400      0.08752900
H       -2.03293700      1.82577600      0.81901000
C       -2.79096000     -0.49193200     -0.43685700
H       -3.82014000     -0.54007300     -0.70674500
C       -1.62583600     -0.39714500     -0.14790200
C       -0.22364600     -0.57264600      0.23468900
O        0.11400300     -0.89294300      1.33953400
O        0.57996700     -0.37223600     -0.80197800
C        1.99386000     -0.45606100     -0.53091700
C        2.48589200      0.81974500      0.12245600
H        2.44241400     -0.60917600     -1.51072800
H        2.18001100     -1.32864800      0.09630500
H        3.56791000      0.76945000      0.25888300
H        2.25114600      1.68054000     -0.50490400
H        2.01947900      0.95432900      1.09868000

