%nprocshared=24
%mem=12GB
%chk=ethyl_propiolate_ts1.chk
# freq 6-311++g(d,p) m062x

Title Card Required

0 2
O       -1.38804300      1.82317300      0.07164200
H       -2.01667900      1.85534900      0.81204300
C       -2.79995100     -0.49840500     -0.43021300
H       -3.83229700     -0.49976300     -0.69252300
C       -1.63151600     -0.48884100     -0.15252300
C       -0.22671700     -0.59350600      0.23987200
O        0.11929400     -0.86628600      1.35560600
O        0.57644900     -0.38831500     -0.79695100
C        1.99097300     -0.46419700     -0.52592500
C        2.48760600      0.81943500      0.10785000
H        2.43815100     -0.63229000     -1.50398700
H        2.17807100     -1.32734500      0.11412600
H        3.56999100      0.76736700      0.24117500
H        2.25404500      1.67209300     -0.53098100
H        2.02474100      0.96909300      1.08340600

