%nprocshared=24
%mem=12GB
%chk=ethyl_propiolate_ts1.chk
# freq 6-311++g(d,p) m062x

Title Card Required

0 2
O       -1.40836900      1.67276700      0.10093200
H       -2.03505400      1.79137000      0.83131000
C       -2.78214600     -0.49196700     -0.44372800
H       -3.80806400     -0.56991800     -0.72053900
C       -1.62120400     -0.29547600     -0.14027800
C       -0.22135500     -0.56332500      0.22903100
O        0.10955200     -0.91574800      1.32491500
O        0.58094700     -0.36165100     -0.80672800
C        1.99551500     -0.44777500     -0.53572900
C        2.48398100      0.82033400      0.13552100
H        2.44466700     -0.58644900     -1.51731900
H        2.18246900     -1.32876600      0.07921300
H        3.56586800      0.76956900      0.27281100
H        2.24826500      1.68913500     -0.48019100
H        2.01607200      0.94136900      1.11286400

