%nprocshared=24
%mem=12GB
%chk=ethyl_propiolate_ts1.chk
# freq 6-311++g(d,p) m062x

Title Card Required

0 2
O       -1.41414200      1.61847000      0.11189600
H       -2.03428400      1.75815700      0.84177900
C       -2.77733900     -0.49633700     -0.45001900
H       -3.80239800     -0.57808700     -0.73047100
C       -1.61737300     -0.21037800     -0.13177400
C       -0.22043900     -0.56238200      0.22324100
O        0.10743800     -0.93298300      1.31331700
O        0.58120600     -0.35325500     -0.81059300
C        1.99644200     -0.44075500     -0.54004200
C        2.48291700      0.82042100      0.14573700
H        2.44589700     -0.56778800     -1.52300500
H        2.18392000     -1.32851800      0.06482900
H        3.56475100      0.76862200      0.28310400
H        2.24656300      1.69588700     -0.46008000
H        2.01428300      0.93045500      1.12402900

