%nprocshared=24
%mem=12GB
%chk=ethyl_propiolate_ts1.chk
# ccsd(t)/6-311++g(d,p) sp

Title Card Required

0 2
 O                 -1.35718300    1.63067600    0.08893800
 H                 -1.97508900    1.78648200    0.81674300
 C                 -2.71956700   -0.47915300   -0.44688400
 H                 -3.74511300   -0.56096900   -0.72611000
 C                 -1.55950000   -0.16649500   -0.12955200
 C                 -0.16381700   -0.53623100    0.22594600
 O                  0.16405700   -0.89577200    1.31968500
 O                  0.63768200   -0.34001100   -0.81055200
 C                  2.05308400   -0.42518000   -0.53965500
 C                  2.54047900    0.84341500    0.13170900
 H                  2.50206700   -0.56347300   -1.52130600
 H                  2.24034700   -1.30618100    0.07506800
 H                  3.62233400    0.79247100    0.26923600
 H                  2.30437300    1.71215500   -0.48379700
 H                  2.07231400    0.96478800    1.10888600

