%nprocshared=24
%mem=12GB
%chk=ethyl_propiolate_ts1.chk
# ccsd(t)/6-311++g(d,p) sp

Title Card Required

0 2
O       -1.40517700      1.70076500      0.09555700
H       -2.03512000      1.80677400      0.82605100
C       -2.78510000     -0.49109400     -0.44085600
H       -3.81203000     -0.56083100     -0.71532000
C       -1.62299400     -0.33718000     -0.14373000
C       -0.22220900     -0.56542000      0.23152600
O        0.11102000     -0.90700100      1.33063900
O        0.58077000     -0.36573300     -0.80483700
C        1.99495500     -0.45115500     -0.53371400
C        2.48462000      0.82018000      0.13042500
H        2.44401400     -0.59557100     -1.51455500
H        2.18162400     -1.32876700      0.08618900
H        3.56653600      0.76984700      0.26761700
H        2.24928700      1.68574300     -0.49004800
H        2.01714200      0.94657500      1.10729200

