%nprocshared=24
%mem=12GB
%chk=ethyl_propiolate_ts1.chk
# freq 6-31+g m062x

Title Card Required

0 2
O       -1.34128600      1.79502100      0.11051200
H       -1.97623100      1.84208700      0.84413300
C       -2.73661400     -0.46578000     -0.45099900
H       -3.76686800     -0.49239500     -0.71967600
C       -1.57018000     -0.41089100     -0.16422000
C       -0.16716100     -0.56058100      0.22173000
O        0.17278700     -0.88421900      1.32525600
O        0.63757300     -0.33692500     -0.80970400
C        2.05132400     -0.42159700     -0.53833400
C        2.54218400      0.84529300      0.13274900
H        2.50097900     -0.56104000     -1.51971500
H        2.23794600     -1.30236400      0.07728200
H        3.62420500      0.79370400      0.26878800
H        2.30735800      1.71452500     -0.48285900
H        2.07525400      0.96607300      1.11047200
