%nprocshared=24
%mem=12GB
%chk=ethyl_propiolate_ts1.chk
# ccsd(t)/6-311++g(d,p) sp

Title Card Required

0 2
O       -1.41564800      1.60504000      0.11468300
H       -2.03406700      1.75000400      0.84429000
C       -2.77599200     -0.49810500     -0.45172500
H       -3.80132200     -0.57680100     -0.73263400
C       -1.61635300     -0.18901900     -0.12936900
C       -0.22055000     -0.56260500      0.22160400
O        0.10704800     -0.93734300      1.31031300
O        0.58133100     -0.35105100     -0.81157700
C        1.99666100     -0.43888300     -0.54115300
C        2.48264500      0.82047000      0.14838800
H        2.44627500     -0.56287700     -1.52442400
H        2.18433400     -1.32835500      0.06112100
H        3.56447000      0.76847400      0.28576100
H        2.24614000      1.69765200     -0.45486900
H        2.01386500      0.92759200      1.12693500

