%nprocshared=24
%mem=12GB
%chk=ethyl_propiolate_ts1.chk
# irc=(calcfc,maxpoints=10,maxcycle=900,stepsize=5) 6-311++g(d,p) m062x

Title Card Required

0 2
 O                 -1.35135557    1.69612544    0.09732100
 H                 -1.97804057    1.81472844    0.82769900
 C                 -2.72513257   -0.46860856   -0.44733900
 H                 -3.75105057   -0.54655956   -0.72415000
 C                 -1.56419057   -0.27211756   -0.14388900
 C                 -0.16434157   -0.53996656    0.22542000
 O                  0.16656543   -0.89238956    1.32130400
 O                  0.63796043   -0.33829256   -0.81033900
 C                  2.05252843   -0.42441656   -0.53934000
 C                  2.54099443    0.84369244    0.13191000
 H                  2.50168043   -0.56309056   -1.52093000
 H                  2.23948243   -1.30540756    0.07560200
 H                  3.62288143    0.79292744    0.26920000
 H                  2.30527843    1.71249344   -0.48380200
 H                  2.07308543    0.96472744    1.10925300

