%nprocshared=24
%mem=12GB
%chk=ethyl_propiolate_ts1.chk
# ccsd(t)/6-311++g(d,p) sp

Title Card Required

0 2
O       -1.39053300      1.80676500      0.07530600
H       -2.02184600      1.84926300      0.81263500
C       -2.79854000     -0.49636600     -0.43148400
H       -3.83034700     -0.50778600     -0.69521100
C       -1.63034800     -0.47161100     -0.15191800
C       -0.22596700     -0.58866600      0.23872700
O        0.11840000     -0.87197500      1.35221400
O        0.57736000     -0.38416200     -0.79797900
C        1.99168100     -0.46249400     -0.52704600
C        2.48749200      0.81937700      0.11093800
H        2.43905300     -0.62752400     -1.50552500
H        2.17817500     -1.32775600      0.11028200
H        3.56977800      0.76774200      0.24507300
H        2.25370300      1.67376200     -0.52549300
H        2.02376100      0.96584000      1.08660700

