%nprocshared=24
%mem=12GB
%chk=ethyl_propiolate_ts1.chk
# ccsd(t)/6-311++g(d,p) sp

Title Card Required

0 2
 O                 -1.35970100    1.60487000    0.08571900
 H                 -1.97392600    1.77683400    0.81167800
 C                 -2.71632800   -0.48472900   -0.44661400
 H                 -3.74327000   -0.55645200   -0.72561500
 C                 -1.55767800   -0.12405500   -0.12388700
 C                 -0.16467500   -0.53537800    0.22587300
 O                  0.16324400   -0.89695000    1.31903500
 O                  0.63768500   -0.34065300   -0.81062700
 C                  2.05321800   -0.42549100   -0.53978300
 C                  2.54031400    0.84331200    0.13163900
 H                  2.50236600   -0.56360400   -1.52137700
 H                  2.24073700   -1.30641000    0.07493100
 H                  3.62215900    0.79242600    0.26926000
 H                  2.30417200    1.71205400   -0.48385100
 H                  2.07215200    0.96471100    1.10882700

