%nprocshared=24
%mem=12GB
%chk=ethyl_propiolate_ts1.chk
# ccsd(t)/6-311++g(d,p) sp

Title Card Required

0 2
O       -1.39277800      1.79082000      0.07866000
H       -2.02579700      1.84310900      0.81377800
C       -2.79685700     -0.49494500     -0.43283600
H       -3.82817300     -0.51536400     -0.69795700
C       -1.62923600     -0.45363300     -0.15108400
C       -0.22536500     -0.58408400      0.23765300
O        0.11734100     -0.87746200      1.34891300
O        0.57817200     -0.38055300     -0.79901900
C        1.99229900     -0.46090500     -0.52806400
C        2.48721900      0.81934600      0.11394300
H        2.44002700     -0.62297200     -1.50686400
H        2.17846000     -1.32812000      0.10667100
H        3.56941500      0.76814600      0.24883000
H        2.25324200      1.67536500     -0.52022800
H        2.02258100      0.96272200      1.08967000

