%nprocshared=4
%mem=150MW
%chk=ethyl_propiolate.chk
# opt=(calcfc,tight,noeigentest) freq 6-311++g(d,p) m062x

Title Card Required

0 2
 C                 -2.98302700   -1.09532300    0.00000200
 C                 -1.97154700   -0.43438700   -0.00000100
 C                 -0.76057300    0.38647700   -0.00000500
 O                 -0.77103800    1.59099500   -0.00001400
 O                  0.33360900   -0.37451000    0.00000400
 C                  1.58397000    0.34537600    0.00000100
 C                  2.69077600   -0.68395500    0.00001100
 H                  1.61139800    0.98722400   -0.88516400
 H                  1.61139400    0.98723800    0.88515600
 H                  2.62937200   -1.31813400    0.88741500
 H                  2.62937500   -1.31814900   -0.88738200
 H                  3.66030100   -0.17918300    0.00000900

