%nprocshared=4
%mem=150MW
%chk=ethyl_propiolate.chk
# uccsd(t)/6-311++g(d,p) sp

Title Card Required

0 2
 C                  2.97753500   -1.08978700    0.00006700
 C                  1.96728200   -0.43828000    0.00001500
 C                  0.76066800    0.38576300   -0.00005300
 O                  0.77530800    1.58327000   -0.00017400
 O                 -0.33286100   -0.37173800    0.00004000
 C                 -1.58358900    0.34700800   -0.00001700
 C                 -2.68916100   -0.68162000    0.00012000
 H                 -1.61210000    0.98784000    0.88350600
 H                 -1.61213100    0.98764300   -0.88368300
 H                 -2.62737600   -1.31447800   -0.88594900
 H                 -2.62734800   -1.31427100    0.88633400
 H                 -3.65703200   -0.17749600    0.00007700

