%nprocshared=4
%mem=150MW
%chk=ethyl_propiolate.chk
# uccsd(t)/6-311++g(d,p) sp

Title Card Required

0 2
 C                  2.89756900   -0.94825600    0.01514100
 H                  3.81149500   -1.49453600    0.02375400
 C                  1.86848600   -0.33470100    0.00436800
 C                  0.65455500    0.45986300   -0.00451400
 O                  0.61880800    1.65593600    0.02210400
 O                 -0.43320800   -0.33728500   -0.04651000
 C                 -1.67056400    0.25479100   -0.08693000
 C                 -2.80016600   -0.69003400    0.04139900
 H                 -1.70325000    1.31206300    0.12948800
 H                 -2.70117200   -1.51177100   -0.67255900
 H                 -2.85045700   -1.13185200    1.04552200
 H                 -3.74070100   -0.17308900   -0.14774100

