%nprocshared=4
%mem=150MW
%chk=ethyl_propiolate.chk
# opt=(calcfc,tight,noeigentest) freq 6-311++g(d,p) m062x

Title Card Required

0 2
 C                 -2.92396100   -0.87896200   -0.01540600
 H                 -3.86482400   -1.38435100   -0.02266600
 C                 -1.86238600   -0.31013600   -0.00757300
 C                 -0.60585400    0.42853600    0.00295100
 O                 -0.53078200    1.63206600    0.02852100
 O                  0.44290700   -0.39963100   -0.02044900
 C                  1.73048800    0.24579500   -0.00200800
 C                  2.76819500   -0.80916800   -0.01283100
 H                  1.80677000    0.91419700   -0.86706400
 H                  1.77545500    0.88100400    0.89554800
 H                  2.57087500   -1.76336400    0.45793100
 H                  3.77582900   -0.56336800   -0.31912400

