%nprocshared=24
%mem=12GB
%chk=ethyl_propiolate_ts1.chk
# freq 6-31+g m062x

Title Card Required

0 2
O        2.71111700      1.77588300     -0.22570900
H        1.87717400      2.22039900      0.00530200
C       -3.13466100      1.02016900      0.42247700
H       -4.01536100      1.56580600      0.66905300
C       -2.14506600      0.40486300      0.14498400
C       -0.97459900     -0.38354200     -0.20785100
O       -1.02104600     -1.48587900     -0.67421300
O        0.15388000      0.28910300      0.05532000
C        1.37319200     -0.39464900     -0.26967600
C        1.82732700     -1.30932500      0.83759600
H        2.12472200      0.41551700     -0.40796000
H        1.26558600     -0.89417300     -1.23271700
H        2.81106400     -1.71290200      0.59256700
H        1.90189300     -0.76024600      1.77725900
H        1.12981500     -2.14052000      0.95679300
