%nprocshared=24
%mem=12GB
%chk=ethyl_propiolate.chk
# irc=(calcfc,maxpoints=10,maxcycle=900,stepsize=5) 6-311++g(d,p) m062x

Title Card Required

0 2
 O                  2.71820500    1.79419300   -0.22314900
 H                  1.87274600    2.21744500    0.00790100
 C                 -3.13490800    1.02029700    0.42252100
 H                 -4.01578200    1.56570900    0.66888600
 C                 -2.14517000    0.40508200    0.14532600
 C                 -0.97440600   -0.38299600   -0.20719900
 O                 -1.02227000   -1.48551700   -0.67357200
 O                  0.15500700    0.28857500    0.05398100
 C                  1.36959600   -0.40828900   -0.27496400
 C                  1.82487800   -1.31376800    0.84022500
 H                  2.12074800    0.37716200   -0.44350000
 H                  1.23843200   -0.93006300   -1.22281300
 H                  2.80857500   -1.71795700    0.59534200
 H                  1.90333800   -0.75729900    1.77527100
 H                  1.12954600   -2.14489600    0.96891100

