%nprocshared=24
%mem=12GB
%chk=ethyl_propiolate_ts1.chk
# freq 6-311++g(d,p) m062x

Title Card Required

0 2
O        2.66653700      1.79693800     -0.24222300
H        1.82244300      2.22290700     -0.01117300
C       -3.18903500      1.04186800      0.40344700
H       -4.06815000      1.59010900      0.64981200
C       -2.20128000      0.42347300      0.12625200
C       -1.03305600     -0.36836600     -0.22627300
O       -1.08446500     -1.47072700     -0.69264600
O        0.09851100      0.29957000      0.03490700
C        1.31085200     -0.40119600     -0.29403800
C        1.76322000     -1.30813400      0.82115100
H        2.06452600      0.38183600     -0.46257400
H        1.17801100     -0.92254500     -1.24188700
H        2.74561200     -1.71548400      0.57626800
H        1.84346900     -0.75192000      1.75619700
H        1.06521900     -2.13702200      0.94983700

