%nprocshared=24
%mem=12GB
%chk=ethyl_propiolate.chk
# ccsd(t)/6-311++g(d,p) sp

Title Card Required

0 2
 O                  2.70233400    1.75459800   -0.22821700
 H                  1.88270400    2.22265500    0.00286000
 C                 -3.13440200    1.02003300    0.42244100
 H                 -4.01498200    1.56590000    0.66918300
 C                 -2.14479200    0.40486300    0.14475700
 C                 -0.97536800   -0.38396400   -0.20874700
 O                 -1.02016100   -1.48613600   -0.67459300
 O                  0.15416400    0.28866400    0.05613300
 C                  1.37607900   -0.38084800   -0.26429100
 C                  1.83065200   -1.30373100    0.83501200
 H                  2.13624400    0.48738700   -0.36538700
 H                  1.30054100   -0.84914700   -1.24614200
 H                  2.81324300   -1.70942100    0.59048300
 H                  1.90033500   -0.76231900    1.77930500
 H                  1.12791800   -2.13326400    0.94357900

