%nprocshared=24
%mem=12GB
%chk=ethyl_propiolate_ts1.chk
# freq 6-31+g m062x

Title Card Required

0 2
O        2.69458600      1.73772100     -0.22990500
H        1.89290100      2.22706800      0.00116100
C       -3.13421600      1.01993100      0.42241500
H       -4.01478400      1.56605200      0.66923200
C       -2.14453100      0.40490800      0.14466800
C       -0.97701800     -0.38411800     -0.20964800
O       -1.01976600     -1.48608100     -0.67455600
O        0.15704600      0.28791100      0.05623600
C        1.36993800     -0.38178000     -0.26046400
C        1.83354000     -1.29934000      0.83377500
H        2.22688900      0.68318400     -0.33752200
H        1.32826200     -0.81340900     -1.26019200
H        2.81397000     -1.70904000      0.58981400
H        1.89886500     -0.76339000      1.78137900
H        1.12417800     -2.12781000      0.93585300
