%nprocshared=24
%mem=12GB
%chk=ethyl_propiolate_ts1.chk
# ccsd(t)/6-311++g(d,p) sp

Title Card Required

0 2
O        2.63608400      1.73931700     -0.24789300
H        1.83926400      2.23400100     -0.01653100
C       -3.19241700      1.03075900      0.40363100
H       -4.07231200      1.57783500      0.65081200
C       -2.20348000      0.41472000      0.12547700
C       -1.03729100     -0.37551300     -0.22949100
O       -1.08102900     -1.47703100     -0.69507100
O        0.09860200      0.29476400      0.03713100
C        1.30756400     -0.37834800     -0.27934900
C        1.77279600     -1.29438000      0.81343600
H        2.19671200      0.73760700     -0.35297100
H        1.27218300     -0.80117100     -1.28264500
H        2.75236300     -1.70587900      0.56935200
H        1.83806400     -0.76011100      1.76207800
H        1.06143700     -2.12210300      0.91433100

