%nprocshared=24
%mem=12GB
%chk=ethyl_propiolate_ts1.chk
# freq 6-31+g m062x

Title Card Required

0 2
O        2.69674400      1.74214800     -0.22948600
H        1.88889200      2.22488900      0.00161500
C       -3.13425900      1.01995400      0.42242000
H       -4.01482500      1.56601200      0.66921800
C       -2.14459100      0.40490100      0.14469100
C       -0.97651100     -0.38409300     -0.20940100
O       -1.01984100     -1.48611700     -0.67458900
O        0.15606300      0.28809700      0.05624500
C        1.37300700     -0.37941700     -0.26146700
C        1.83280100     -1.30047200      0.83404900
H        2.18664400      0.60752200     -0.34377300
H        1.32126800     -0.82254900     -1.25612500
H        2.81384100     -1.70898400      0.58991100
H        1.89923800     -0.76308900      1.78069900
H        1.12519300     -2.12895700      0.93733200

