%nprocshared=24
%mem=12GB
%chk=ethyl_propiolate.chk
# freq 6-311++g(d,p) m062x

Title Card Required

0 2
 O                  2.69847400    1.74584600   -0.22912700
 H                  1.88635500    2.22383300    0.00200300
 C                 -3.13429800    1.01997600    0.42242600
 H                 -4.01486000    1.56597800    0.66920800
 C                 -2.14464900    0.40489300    0.14470800
 C                 -0.97611600   -0.38405800   -0.20919800
 O                 -1.01992000   -1.48613800   -0.67460500
 O                  0.15534600    0.28825300    0.05623400
 C                  1.37478200   -0.37859800   -0.26230100
 C                  1.83217100   -1.30141600    0.83429100
 H                  2.16190400    0.55692700   -0.34946400
 H                  1.31531700   -0.83023400   -1.25296300
 H                  2.81371700   -1.70900700    0.59002800
 H                  1.89956600   -0.76285000    1.78022500
 H                  1.12609500   -2.13007000    0.93890600

