%nprocshared=24
%mem=12GB
%chk=ethyl_propiolate_ts1.chk
# ccsd(t)/6-311++g(d,p) sp

Title Card Required

0 2
O        2.64426600      1.76397000     -0.24748700
H        1.82466900      2.23208500     -0.01641000
C       -3.19252100      1.02981600      0.40317100
H       -4.07306300      1.57574500      0.64991300
C       -2.20295500      0.41457700      0.12548700
C       -1.03358600     -0.37433200     -0.22801700
O       -1.07845700     -1.47650100     -0.69386300
O        0.09599300      0.29821600      0.03686300
C        1.31786100     -0.37138200     -0.28356100
C        1.77236900     -1.29429700      0.81574200
H        2.07808700      0.49679900     -0.38465700
H        1.24229000     -0.83967600     -1.26541200
H        2.75493100     -1.70005600      0.57121300
H        1.84209000     -0.75289000      1.76003500
H        1.06957600     -2.12378100      0.92430900

