%nprocshared=24
%mem=12GB
%chk=ethyl_propiolate.chk
# ccsd(t)/6-311++g(d,p) sp

Title Card Required

0 2
 O                  2.71644200    1.78954700   -0.22383000
 H                  1.87383200    2.21823100    0.00721600
 C                 -3.13484300    1.02025900    0.42250900
 H                 -4.01566900    1.56573100    0.66893500
 C                 -2.14515700    0.40500100    0.14522500
 C                 -0.97443500   -0.38314100   -0.20736000
 O                 -1.02190300   -1.48560800   -0.67376500
 O                  0.15465500    0.28879500    0.05438100
 C                  1.37045600   -0.40483800   -0.27356000
 C                  1.82547400   -1.31267200    0.83954000
 H                  2.12232400    0.38665900   -0.43498200
 H                  1.24485700   -0.92143600   -1.22518400
 H                  2.80924400   -1.71653200    0.59456800
 H                  1.90294900   -0.75814100    1.77580600
 H                  1.12975900   -2.14398000    0.96583300

