%nprocshared=24
%mem=12GB
%chk=ethyl_propiolate_ts1.chk
# ccsd(t)/6-311++g(d,p) sp

Title Card Required

0 2
O        2.63836500      1.74991300     -0.24819100
H        1.83062000      2.23277300     -0.01696300
C       -3.19282500      1.02889200      0.40334000
H       -4.07326900      1.57508000      0.65028300
C       -2.20329500      0.41369100      0.12544900
C       -1.03539100     -0.37546900     -0.22885500
O       -1.07896800     -1.47734000     -0.69438200
O        0.09733400      0.29637200      0.03702700
C        1.31412900     -0.37133000     -0.28085800
C        1.77367800     -1.29283000      0.81438800
H        2.12800100      0.61544200     -0.36283900
H        1.26231200     -0.81414500     -1.27565300
H        2.75462800     -1.70149800      0.57015000
H        1.84021600     -0.75575300      1.76120400
H        1.06587200     -2.12118000      0.91739800

