%nprocshared=24
%mem=12GB
%chk=ethyl_propiolate_ts1.chk
# freq 6-311++g(d,p) m062x

Title Card Required

0 2
O        2.63723500      1.74548600     -0.24811100
H        1.83375400      2.23299200     -0.01683100
C       -3.19271000      1.02944900      0.40345700
H       -4.07296800      1.57594700      0.65049700
C       -2.20337800      0.41397200      0.12546000
C       -1.03613100     -0.37555800     -0.22912000
O       -1.07969100     -1.47728500     -0.69466300
O        0.09782500      0.29572700      0.03707600
C        1.31175000     -0.37366300     -0.28021900
C        1.77344400     -1.29331000      0.81399000
H        2.15449300      0.66478100     -0.35827500
H        1.26657700     -0.80859200     -1.27853300
H        2.75383700     -1.70308400      0.56981400
H        1.83938600     -0.75741200      1.76155000
H        1.06412600     -2.12139900      0.91595800

