%nprocshared=24
%mem=12GB
%chk=ethyl_propiolate_ts1.chk
# freq 6-311++g(d,p) m062x

Title Card Required

0 2
O        2.64105400      1.75755500     -0.24817200
H        1.82654000      2.23256100     -0.01705600
C       -3.19280900      1.02883500      0.40313500
H       -4.07341200      1.57473100      0.64990900
C       -2.20313000      0.41379600      0.12542500
C       -1.03425700     -0.37504400     -0.22836100
O       -1.07829600     -1.47715700     -0.69390700
O        0.09650000      0.29743600      0.03692100
C        1.31704600     -0.36968200     -0.28215300
C        1.77341100     -1.29288700      0.81517600
H        2.09330200      0.54155300     -0.37310500
H        1.25276900     -0.82646800     -1.27018500
H        2.75531700     -1.69982100      0.57083900
H        1.84144100     -0.75352000      1.76065400
H        1.06841100     -2.12180700      0.92085800

