%nprocshared=24
%mem=12GB
%chk=ethyl_propiolate_ts1.chk
# freq 6-31+g m062x

Title Card Required

0 2
O        2.70752600      1.76699400     -0.22681400
H        1.87932300      2.22143100      0.00421300
C       -3.13455000      1.02011200      0.42246100
H       -4.01518900      1.56584400      0.66911500
C       -2.14496700      0.40483900      0.14486900
C       -0.97481300     -0.38375100     -0.20820200
O       -1.02061900     -1.48601600     -0.67442300
O        0.15371400      0.28905000      0.05575400
C        1.37474400     -0.38839400     -0.26732700
C        1.82864600     -1.30703600      0.83643100
H        2.12738200      0.43921400     -0.39020700
H        1.27970100     -0.87591200     -1.23796700
H        2.81208600     -1.71110400      0.59154000
H        1.90126700     -0.76126800      1.77811900
H        1.12937100     -2.13775500      0.95115900
