%nprocshared=24
%mem=12GB
%chk=ethyl_propiolate_ts1.chk
# freq 6-31+g m062x

Title Card Required

0 2
O        2.69958500      1.74831900     -0.22887600
H        1.88510300      2.22338000      0.00224000
C       -3.13432700      1.01999200      0.42243100
H       -4.01489300      1.56594700      0.66920500
C       -2.14468900      0.40488600      0.14472100
C       -0.97586900     -0.38403300     -0.20906500
O       -1.01998200     -1.48614300     -0.67461100
O        0.15493300      0.28837100      0.05621700
C        1.37543400     -0.37882900     -0.26285700
C        1.83173700     -1.30206400      0.83447200
H        2.15175100      0.53235400     -0.35380900
H        1.31112600     -0.83561000     -1.25088900
H        2.81361600     -1.70906400      0.59013500
H        1.89980300     -0.76270200      1.77995000
H        1.12668100     -2.13093700      0.94015400
