%nprocshared=24
%mem=12GB
%chk=ethyl_propiolate.chk
# irc=(calcfc,maxpoints=10,maxcycle=900,stepsize=5) 6-311++g(d,p) m062x

Title Card Required

0 2
 O                  2.70574400    1.76267900   -0.22731800
 H                  1.88038700    2.22183500    0.00372900
 C                 -3.13449800    1.02008400    0.42245500
 H                 -4.01511300    1.56586100    0.66914100
 C                 -2.14491000    0.40484200    0.14482400
 C                 -0.97496300   -0.38383200   -0.20838400
 O                 -1.02043900   -1.48606600   -0.67450300
 O                  0.15376600    0.28895600    0.05591600
 C                  1.37535900   -0.38554600   -0.26623700
 C                  1.82932500   -1.30589400    0.83590400
 H                  2.12940300    0.45317800   -0.38156600
 H                  1.28674900   -0.86684800   -1.24066500
 H                  2.81253100   -1.71040300    0.59112300
 H                  1.90096000   -0.76167400    1.77852600
 H                  1.12899700   -2.13627300    0.94848900

