%nprocshared=24
%mem=12GB
%chk=ethyl_propiolate_ts1.chk
# ccsd(t)/6-311++g(d,p) sp

Title Card Required

0 2
O        2.63906200      1.75225300     -0.24820300
H        1.82916300      2.23272600     -0.01699800
C       -3.19285500      1.02871800      0.40328400
H       -4.07337500      1.57477700      0.65017900
C       -2.20324700      0.41362300      0.12544400
C       -1.03502000     -0.37538200     -0.22871200
O       -1.07866500     -1.47732700     -0.69424300
O        0.09707800      0.29670400      0.03699900
C        1.31523600     -0.37040700     -0.28122300
C        1.77371200     -1.29269800      0.81460200
H        2.11532900      0.59068500     -0.36550800
H        1.25980800     -0.81738200     -1.27409300
H        2.75495600     -1.70080700      0.57033000
H        1.84062500     -0.75497200      1.76102700
H        1.06673700     -2.12119600      0.91827500

