%nprocshared=24
%mem=12GB
%chk=ethyl_propiolate_ts1.chk
# ccsd(t)/6-311++g(d,p) sp

Title Card Required

0 2
O        2.65114600      1.77493400     -0.24601900
H        1.82333700      2.23009000     -0.01499200
C       -3.19157700      1.03312400      0.40325600
H       -4.07174200      1.57962100      0.64991000
C       -2.20252800      0.41699300      0.12566400
C       -1.03305900     -0.37261300     -0.22740700
O       -1.07982200     -1.47483800     -0.69362800
O        0.09605100      0.29920800      0.03654900
C        1.31649300     -0.37929600     -0.28653200
C        1.76959700     -1.29833200      0.81722600
H        2.06984900      0.44765800     -0.40941200
H        1.22102700     -0.86673100     -1.25717200
H        2.75268600     -1.70325300      0.57233500
H        1.84269200     -0.75262700      1.75891400
H        1.06960100     -2.12844300      0.93195400

