%nprocshared=24
%mem=12GB
%chk=ethyl_propiolate.chk
# irc=(calcfc,maxpoints=10,maxcycle=900,stepsize=5) 6-311++g(d,p) m062x

Title Card Required

0 2
 O                  2.69598100    1.74055500   -0.22963900
 H                  1.89017500    2.22550800    0.00145100
 C                 -3.13424300    1.01994500    0.42241800
 H                 -4.01481000    1.56602600    0.66922300
 C                 -2.14456800    0.40490400    0.14468300
 C                 -0.97668600   -0.38410400   -0.20948800
 O                 -1.01981200   -1.48610600   -0.67457900
 O                  0.15639300    0.28803100    0.05624500
 C                  1.37204000   -0.38007600   -0.26111200
 C                  1.83306400   -1.30007200    0.83395100
 H                  2.19973900    0.63279800   -0.34146600
 H                  1.32374700   -0.81933000   -1.25752800
 H                  2.81388800   -1.70899600    0.58987300
 H                  1.89910300   -0.76319500    1.78092700
 H                  1.12482100   -2.12853200    0.93675700

