%nprocshared=24
%mem=12GB
%chk=ethyl_propiolate_ts1.chk
# ccsd(t)/6-311++g(d,p) sp

Title Card Required

0 2
O        2.63776100      1.74766500     -0.24815900
H        1.83214200      2.23284900     -0.01690400
C       -3.19277500      1.02913800      0.40339900
H       -4.07313200      1.57547400      0.65039000
C       -2.20333800      0.41381000      0.12545400
C       -1.03576000     -0.37552600     -0.22899000
O       -1.07931200     -1.47732400     -0.69452300
O        0.09757900      0.29604700      0.03705300
C        1.31296900     -0.37242100     -0.28052700
C        1.77358400     -1.29304000      0.81418500
H        2.14107800      0.64015200     -0.36044600
H        1.26453600     -0.81125800     -1.27712000
H        2.75425200     -1.70226100      0.56997900
H        1.83980400     -0.75656800      1.76137800
H        1.06500400     -2.12125600      0.91663400

