%nprocshared=24
%mem=12GB
%chk=ethyl_propiolate_ts1.chk
# ccsd(t)/6-311++g(d,p) sp

Title Card Required

0 2
O        2.66133800      1.78962900     -0.24360100
H        1.82266000      2.22571200     -0.01258300
C       -3.18993200      1.03879400      0.40338200
H       -4.06940900      1.58641900      0.64986300
C       -2.20175300      0.42115300      0.12602100
C       -1.03296600     -0.36985400     -0.22663100
O       -1.08270200     -1.47216000     -0.69304300
O        0.09743100      0.29969700      0.03561900
C        1.31288500     -0.39348100     -0.29134100
C        1.76536100     -1.30480000      0.81975600
H        2.06606800      0.40137400     -0.44495700
H        1.19200800     -0.90413300     -1.24678300
H        2.74821700     -1.71075600      0.57472600
H        1.84317300     -0.75233700      1.75720600
H        1.06718300     -2.13448400      0.94360600

