%chk=ethyl_propiolate.chk 
%nprocshared=24 
%mem=12GB 
# ccsd(t)/6-311++g(d,p) sp 

Title Card Required

0 2
 C                 -2.51299600    0.20242400   -1.14501300
 H                 -3.40481100    0.46635700   -1.66741300
 C                 -1.55140900    0.09196800   -0.34449500
 C                 -0.25958600   -0.58922100   -0.02631700
 O                 -0.18615800   -1.66185200    0.49986800
 O                  0.76044200    0.20385800   -0.31983500
 C                  2.05320900   -0.25619800    0.12411200
 C                  3.05826000    0.80259700   -0.26262200
 H                  2.00686700   -0.40943900    1.20418800
 H                  2.25950000   -1.21869400   -0.34821100
 H                  3.06836700    0.94728200   -1.34358700
 H                  2.81571600    1.75252400    0.21472600
 H                  4.05563500    0.49569200    0.05660300
 O                 -1.68961700    1.09580200    1.08523600
 H                 -2.47643700    0.71911100    1.50078400

