%chk=ethyl_propiolate.chk 
%nprocshared=24 
%mem=12GB 
# ccsd(t)/6-311++g(d,p) sp 

Title Card Required

0 2
 C                 -2.53094100    0.22022100   -1.13618900
 H                 -3.42983700    0.49469200   -1.63698500
 C                 -1.51544500   -0.05100200   -0.54884600
 C                 -0.25713700   -0.59934700   -0.04075400
 O                 -0.18154300   -1.65993700    0.51219200
 O                  0.76093000    0.20571800   -0.31589800
 C                  2.05228400   -0.25476100    0.12720400
 C                  3.05826900    0.80254500   -0.26237800
 H                  2.01056500   -0.40895600    1.20725900
 H                  2.25689100   -1.21769800   -0.34561700
 H                  3.06672000    0.94646700   -1.34343800
 H                  2.81748800    1.75332700    0.21428600
 H                  4.05587400    0.49525400    0.05577200
 O                 -1.70653500    1.18927400    1.21824800
 H                 -2.49828300    0.74092800    1.55719700

