%nprocshared=24
%mem=12GB
%chk=ethyl_propiolate_ts1.chk
# freq 6-31+g m062x

Title Card Required

0 2
O        2.11534100      1.38156600     -0.01736600
H        2.75944000      1.22085400      0.69050800
C        2.39440500     -1.17941400     -0.56625200
H        3.27343200     -1.66562800     -0.92078200
C        1.43107500     -0.55810600     -0.18104300
C        0.09855400     -0.19616000      0.31612600
O       -0.23541700     -0.34786300      1.45707000
O       -0.65613800      0.28464200     -0.66272300
C       -1.98913600      0.69292300     -0.29278200
C       -2.92198600     -0.49917400     -0.20907700
H       -2.28275000      1.38058800     -1.08366600
H       -1.93717300      1.22924700      0.65532400
H       -3.93654000     -0.15479000      0.00071200
H       -2.93074700     -1.04317700     -1.15479400
H       -2.61494100     -1.17310600      0.59086500

