%chk=ethyl_propiolate.chk
%nprocshared=24
%mem=12GB
# ccsd(t)/6-311++g(d,p) sp

Title Card Required

0 2
 O                  2.15065200    1.47878700   -0.00802600
 H                  2.76065800    1.24452900    0.71116600
 C                  2.40446600   -1.18495400   -0.57164600
 H                  3.31383700   -1.61566200   -0.92075100
 C                  1.38003900   -0.68269400   -0.19533300
 C                  0.08873300   -0.22296300    0.31286100
 O                 -0.23727100   -0.33665400    1.46168700
 O                 -0.65666500    0.28379200   -0.66199100
 C                 -1.98777100    0.69665000   -0.29152200
 C                 -2.92057000   -0.49665500   -0.20888300
 H                 -2.28085500    1.38404200   -1.08276200
 H                 -1.93640200    1.23292400    0.65648500
 H                 -3.93559600   -0.15369500    0.00076000
 H                 -2.92782600   -1.04019400   -1.15485400
 H                 -2.61382600   -1.17098000    0.59098100

