%nprocshared=24
%mem=12GB
%chk=ethyl_propiolate_ts1.chk
# freq 6-31+g m062x

Title Card Required

0 2
O        2.16815800      1.35765400     -0.00973800
H        2.81664400      1.21386100      0.69674600
C        2.45336500     -1.17900100     -0.55544700
H        3.32771000     -1.67318600     -0.91114700
C        1.50956100     -0.51793200     -0.16734300
C        0.16190500     -0.19104500      0.32649200
O       -0.17251700     -0.34822200      1.46610800
O       -0.59361300      0.28562100     -0.65294300
C       -1.92684400      0.69424000     -0.28302900
C       -2.85975800     -0.49754200     -0.19913300
H       -2.22007200      1.38198900     -1.07395500
H       -1.87418100      1.23064300      0.66499600
H       -3.87425500     -0.15302600      0.01067500
H       -2.86872800     -1.04160500     -1.14482100
H       -2.55270700     -1.17141700      0.60084600

