%nprocshared=24
%mem=12GB
%chk=ethyl_propiolate_ts1.chk
# freq 6-31+g m062x

Title Card Required

0 2
O        2.11050300      1.36858200     -0.01853900
H        2.75708000      1.21666800      0.68853300
C        2.39267500     -1.17985300     -0.56575800
H        3.26895900     -1.67076400     -0.92089500
C        1.43904200     -0.53905600     -0.17916100
C        0.09910800     -0.19423500      0.31637600
O       -0.23516200     -0.34900200      1.45658600
O       -0.65608100      0.28424800     -0.66281400
C       -1.98920700      0.69266100     -0.29289100
C       -2.92209800     -0.49926300     -0.20907200
H       -2.28263400      1.38036100     -1.08380100
H       -1.93689600      1.22903300      0.65517100
H       -3.93661900     -0.15479800      0.00072400
H       -2.93097300     -1.04331300     -1.15476500
H       -2.61504700     -1.17315600      0.59089600
