%chk=ethyl_propiolate.chk
%nprocshared=24
%mem=12GB
# irc=(calcfc,maxpoints=10,maxcycle=900,stepsize=5) 6-311++g(d,p) m062x

Title Card Required

0 2
 O                  2.13506800    1.43576200   -0.01230100
 H                  2.76385300    1.23403300    0.69995800
 C                  2.40122000   -1.18113700   -0.56909600
 H                  3.29634000   -1.63883700   -0.92066200
 C                  1.40078000   -0.63139800   -0.18894200
 C                  0.09399700   -0.20883700    0.31455500
 O                 -0.23659200   -0.34189100    1.45957800
 O                 -0.65636700    0.28551400   -0.66221600
 C                 -1.98870900    0.69467600   -0.29215700
 C                 -2.92125700   -0.49836200   -0.20905200
 H                 -2.28262100    1.38210300   -1.08311100
 H                 -1.93778000    1.23089900    0.65599300
 H                 -3.93604000   -0.15465400    0.00068900
 H                 -2.92931200   -1.04214900   -1.15488400
 H                 -2.61434200   -1.17247200    0.59085400

