%nprocshared=24
%mem=12GB
%chk=ethyl_propiolate_ts1.chk
# ccsd(t)/6-311++g(d,p) sp

Title Card Required

0 2
O        2.11999400      1.25887700      0.02903700
H        2.78412800      1.16445100      0.72347900
C        2.43889100     -1.15888100     -0.59761100
H        3.33050200     -1.61023900     -0.97333800
C        1.58555500     -0.32598100     -0.16322100
C        0.16817200     -0.19725800      0.31897400
O       -0.16873900     -0.41165800      1.44833100
O       -0.59520000      0.30422200     -0.64190100
C       -1.93082900      0.69261900     -0.25677000
C       -2.85735900     -0.50567100     -0.21813700
H       -2.22721400      1.40905700     -1.02061300
H       -1.87889300      1.19239400      0.71123900
H       -3.87370900     -0.17510000      0.00471700
H       -2.86372900     -1.01317200     -1.18397900
H       -2.54611000     -1.20788800      0.55534100

