%nprocshared=24
%mem=12GB
%chk=ethyl_propiolate_ts1.chk
# freq 6-311++g(d,p) m062x

Title Card Required

0 2
O        2.13501800      1.29298900      0.01331600
H        2.79334700      1.18212200      0.71271900
C        2.44663600     -1.16562300     -0.58053900
H        3.32423500     -1.64592200     -0.94947400
C        1.56047000     -0.38934600     -0.16474400
C        0.16509200     -0.19327000      0.32245800
O       -0.16985200     -0.38655800      1.45575400
O       -0.59460200      0.29599700     -0.64654900
C       -1.92980300      0.69184200     -0.26763300
C       -2.85785100     -0.50477700     -0.21049800
H       -2.22514100      1.39644400     -1.04273400
H       -1.87770000      1.20680600      0.69227700
H       -3.87371200     -0.16924400      0.00706000
H       -2.86490500     -1.02730800     -1.16828300
H       -2.54788700     -1.19527700      0.57400100

