%chk=ethyl_propiolate.chk
%nprocshared=24
%mem=12GB
# irc=(calcfc,maxpoints=10,maxcycle=900,stepsize=5) 6-311++g(d,p) m062x

Title Card Required

0 2
 O                  2.07324600    1.26966500   -0.02708600
 H                  2.73288400    1.18033000    0.67349100
 C                  2.37622900   -1.19290100   -0.56350400
 H                  3.25524800   -1.67957600   -0.92153100
 C                  1.50439800   -0.38194500   -0.16401600
 C                  0.10237300   -0.18840900    0.31659900
 O                 -0.23391500   -0.35543500    1.45376400
 O                 -0.65611600    0.28129800   -0.66320400
 C                 -1.98959100    0.69143000   -0.29343500
 C                 -2.92270300   -0.49955100   -0.20907600
 H                 -2.28199200    1.37952700   -1.08433300
 H                 -1.93507300    1.22781600    0.65456200
 H                 -3.93713500   -0.15490900    0.00077800
 H                 -2.93202500   -1.04369400   -1.15473200
 H                 -2.61552400   -1.17332300    0.59090300

