%chk=ethyl_propiolate.chk
%nprocshared=24
%mem=12GB
# irc=(calcfc,maxpoints=10,maxcycle=900,stepsize=5) 6-311++g(d,p) m062x

Title Card Required

0 2
 O                  2.09154600    1.31847700   -0.02296700
 H                  2.74497500    1.19756300    0.68154500
 C                  2.38563400   -1.18485600   -0.56457300
 H                  3.25663900   -1.68455500   -0.92170800
 C                  1.47157800   -0.46102100   -0.17159500
 C                  0.10031200   -0.18980700    0.31688000
 O                 -0.23440200   -0.35262400    1.45506900
 O                 -0.65597700    0.28266700   -0.66305100
 C                 -1.98945100    0.69198200   -0.29318200
 C                 -2.92241700   -0.49944200   -0.20908200
 H                 -2.28214200    1.37987100   -1.08413900
 H                 -1.93581600    1.22844700    0.65475300
 H                 -3.93685800   -0.15481100    0.00075700
 H                 -2.93162800   -1.04353400   -1.15476100
 H                 -2.61537500   -1.17327200    0.59092700

