%nprocshared=24
%mem=12GB
%chk=ethyl_propiolate_ts1.chk
# freq 6-31+g m062x

Title Card Required

0 2
O        2.14533500      1.46415900     -0.00950900
H        2.76253500      1.24072800      0.70680000
C        2.40368300     -1.18345400     -0.57076500
H        3.30830900     -1.62336500     -0.92069000
C        1.38675100     -0.66606300     -0.19319000
C        0.09061200     -0.21786600      0.31346800
O       -0.23709600     -0.33839300      1.46098800
O       -0.65653200      0.28475300     -0.66201100
C       -1.98819200      0.69594700     -0.29173600
C       -2.92078000     -0.49739200     -0.20897000
H       -2.28169200      1.38331200     -1.08286200
H       -1.93716500      1.23219200      0.65633800
H       -3.93573400     -0.15420400      0.00070900
H       -2.92830400     -1.04101300     -1.15489500
H       -2.61396200     -1.17163100      0.59091200

