%nprocshared=24
%mem=12GB
%chk=ethyl_propiolate_ts1.chk
# ccsd(t)/6-311++g(d,p) sp

Title Card Required

0 2
O        2.14027800      1.30393100      0.00895200
H        2.79698300      1.18765400      0.70971400
C        2.44837800     -1.16754500     -0.57574900
H        3.32324300     -1.65394400     -0.94247600
C        1.55206300     -0.41076500     -0.16531600
C        0.16437700     -0.19229400      0.32336200
O       -0.17022600     -0.37948300      1.45773800
O       -0.59440900      0.29386400     -0.64780100
C       -1.92938300      0.69194600     -0.27058400
C       -2.85810500     -0.50397200     -0.20833500
H       -2.22435800      1.39330700     -1.04874900
H       -1.87718100      1.21105700      0.68706500
H       -3.87376400     -0.16689200      0.00776300
H       -2.86544900     -1.03063000     -1.16385300
H       -2.54859400     -1.19126700      0.57916000

