%nprocshared=24
%mem=12GB
%chk=ethyl_propiolate_ts1.chk
# ccsd(t)/6-311++g(d,p) sp

Title Card Required

0 2
O        2.15670800      1.33599800     -0.00253600
H        2.80894600      1.20386100      0.70177900
C        2.45176800     -1.17346800     -0.56311000
H        3.32378200     -1.66896600     -0.92337700
C        1.52666300     -0.47536900     -0.16692900
C        0.16291000     -0.19056400      0.32547500
O       -0.17146500     -0.36052900      1.46285900
O       -0.59389400      0.28865200     -0.65100200
C       -1.92793200      0.69306900     -0.27822900
C       -2.85906100     -0.50044200     -0.20259700
H       -2.22183000      1.38603400     -1.06430700
H       -1.87538800      1.22290200      0.67349000
H       -3.87403700     -0.15887200      0.00966200
H       -2.86738900     -1.03784500     -1.15209800
H       -2.55097600     -1.17944400      0.59262500

