%nprocshared=24
%mem=12GB
%chk=ethyl_propiolate_ts1.chk
# freq 6-31+g m062x

Title Card Required

0 2
O        2.08691200      1.30627800     -0.02401200
H        2.74176000      1.19283900      0.67969100
C        2.38367700     -1.18679300     -0.56439800
H        3.25527400     -1.68545700     -0.92185000
C        1.47973800     -0.44120000     -0.16966200
C        0.10062600     -0.18933900      0.31687100
O       -0.23427000     -0.35335100      1.45475900
O       -0.65599500      0.28231300     -0.66309100
C       -1.98949800      0.69185400     -0.29324700
C       -2.92248400     -0.49947100     -0.20908200
H       -2.28207600      1.37978900     -1.08419700
H       -1.93560500      1.22831700      0.65468200
H       -3.93691500     -0.15482500      0.00076400
H       -2.93174400     -1.04357400     -1.15475600
H       -2.61542900     -1.17328700      0.59093000

