%chk=ethyl_propiolate.chk
%nprocshared=24
%mem=12GB
# ccsd(t)/6-311++g(d,p) sp

Title Card Required

0 2
 O                  2.12020800    1.39481900   -0.01614800
 H                  2.76130000    1.22451600    0.69256100
 C                  2.39621600   -1.17944100   -0.56688400
 H                  3.27874600   -1.65959500   -0.92071800
 C                  1.42324800   -0.57682900   -0.18294600
 C                  0.09772000   -0.19868500    0.31580400
 O                 -0.23570600   -0.34653800    1.45763800
 O                 -0.65620000    0.28501400   -0.66261000
 C                 -1.98906000    0.69326600   -0.29265600
 C                 -2.92184300   -0.49905000   -0.20907700
 H                 -2.28284500    1.38087300   -1.08352800
 H                 -1.93744000    1.22954900    0.65548300
 H                 -3.93643800   -0.15478600    0.00070600
 H                 -2.93046500   -1.04301700   -1.15481200
 H                 -2.61481600   -1.17301900    0.59085400

