%chk=ethyl_propiolate.chk
%nprocshared=24
%mem=12GB
# freq 6-311++g(d,p) m062x

Title Card Required

0 2
 O                  2.08231600    1.29409500   -0.02504400
 H                  2.73863800    1.18836600    0.67774500
 C                  2.38148700   -1.18881100   -0.56417900
 H                  3.25457500   -1.68501900   -0.92188800
 C                  1.48792400   -0.42138800   -0.16774500
 C                  0.10106200   -0.18897200    0.31681900
 O                 -0.23414800   -0.35405600    1.45444400
 O                 -0.65602600    0.28196700   -0.66312900
 C                 -1.98953700    0.69172300   -0.29331100
 C                 -2.92255300   -0.49949800   -0.20908100
 H                 -2.28203100    1.37970700   -1.08424900
 H                 -1.93541200    1.22817100    0.65462700
 H                 -3.93698000   -0.15484600    0.00077000
 H                 -2.93184700   -1.04361400   -1.15475000
 H                 -2.61547200   -1.17330000    0.59092600

