%nprocshared=24
%mem=12GB
%chk=ethyl_propiolate_ts1.chk
# freq 6-311++g(d,p) m062x

Title Card Required

0 2
O        2.12486800      1.27049600      0.02327600
H        2.78688000      1.17058100      0.71955100
C        2.44193400     -1.16137900     -0.59138300
H        3.32790500     -1.62425900     -0.96483400
C        1.57721800     -0.34691600     -0.16368500
C        0.16697300     -0.19575600      0.32028000
O       -0.16911800     -0.40251600      1.45110500
O       -0.59500200      0.30112400     -0.64362900
C       -1.93053000      0.69215800     -0.26079100
C       -2.85747400     -0.50565900     -0.21536500
H       -2.22657600      1.40423600     -1.02879800
H       -1.87856600      1.19753800      0.70426500
H       -3.87368300     -0.17336600      0.00554200
H       -2.86403400     -1.01869700     -1.17827500
H       -2.54664000     -1.20355800      0.56219100

