%chk=ethyl_propiolate.chk
%nprocshared=24
%mem=12GB
# ccsd(t)/6-311++g(d,p) sp

Title Card Required

0 2
 O                  2.06436900    1.24502600   -0.02911400
 H                  2.72800800    1.17359600    0.66853900
 C                  2.36957500   -1.19677600   -0.56239600
 H                  3.25859900   -1.66725300   -0.92038000
 C                  1.52098300   -0.34300700   -0.16044000
 C                  0.10438200   -0.18786600    0.31624800
 O                 -0.23365400   -0.35683000    1.45295600
 O                 -0.65621500    0.28063800   -0.66329000
 C                 -1.98960500    0.69106800   -0.29355600
 C                 -2.92287800   -0.49960900   -0.20906600
 H                 -2.28199600    1.37930100   -1.08439500
 H                 -1.93478200    1.22735100    0.65455200
 H                 -3.93733100   -0.15499500    0.00077900
 H                 -2.93217900   -1.04378600   -1.15470500
 H                 -2.61554200   -1.17334600    0.59085700

