%nprocshared=24
%mem=12GB
%chk=ethyl_propiolate_ts1.chk
# ccsd(t)/6-311++g(d,p) sp

Title Card Required

0 2
O        2.19794500      1.41411600     -0.02772200
H        2.83049300      1.23281000      0.68647000
C        2.45712700     -1.19837300     -0.53734200
H        3.34588800     -1.67390300     -0.88135500
C        1.46777200     -0.62106500     -0.16603000
C        0.15669200     -0.19862000      0.32837800
O       -0.17585600     -0.31609900      1.47437100
O       -0.59286300      0.27794700     -0.65753000
C       -1.92382900      0.69829400     -0.29500900
C       -2.86128700     -0.48911100     -0.19142500
H       -2.21482400      1.37321100     -1.09774100
H       -1.87078000      1.25059700      0.64377300
H       -3.87463900     -0.13750700      0.01208200
H       -2.87156400     -1.04917200     -1.12769400
H       -2.55723100     -1.15049900      0.62008900

