%nprocshared=24
%mem=12GB
%chk=ethyl_propiolate_ts1.chk
# freq 6-31+g m062x

Title Card Required

0 2
O        2.13006000      1.42191900     -0.01362500
H        2.76353800      1.23087800      0.69719700
C        2.39966200     -1.18031500     -0.56831000
H        3.29024100     -1.64623600     -0.92066800
C        1.40808500     -0.61351200     -0.18687900
C        0.09544700     -0.20497300      0.31502600
O       -0.23629800     -0.34355600      1.45889200
O       -0.65630900      0.28549700     -0.66235100
C       -1.98886100      0.69413300     -0.29234500
C       -2.92147900     -0.49866800     -0.20906800
H       -2.28281100      1.38161900     -1.08324800
H       -1.93778000      1.23036400      0.65581700
H       -3.93618700     -0.15473400      0.00069300
H       -2.92975600     -1.04252600     -1.15486100
H       -2.61452100     -1.17272500      0.59084600

