%nprocshared=24
%mem=12GB
%chk=ethyl_propiolate_ts1.chk
# ccsd(t)/6-311++g(d,p) sp

Title Card Required

0 2
O        2.17396000      1.36853100     -0.01323800
H        2.82040900      1.21850900      0.69435500
C        2.45412700     -1.18197000     -0.55179500
H        3.33002700     -1.67477500     -0.90525000
C        1.50099500     -0.53911100     -0.16739000
C        0.16132800     -0.19155100      0.32695300
O       -0.17307800     -0.34218100      1.46767800
O       -0.59347100      0.28420000     -0.65386700
C       -1.92627900      0.69491900     -0.28535200
C       -2.86011200     -0.49597700     -0.19750000
H       -2.21915400      1.38016000     -1.07859700
H       -1.87355600      1.23446600      0.66088300
H       -3.87436300     -0.15000000      0.01111100
H       -2.86940500     -1.04322800     -1.14134000
H       -2.55360200     -1.16739100      0.60475700

