%nprocshared=24
%mem=12GB
%chk=ethyl_propiolate_ts1.chk
# ccsd(t)/6-311++g(d,p) sp

Title Card Required

0 2
O        2.20418500      1.42585000     -0.03144200
H        2.83177000      1.23585400      0.68508900
C        2.45762800     -1.20330900     -0.53374100
H        3.35058700     -1.67259100     -0.87539400
C        1.45979500     -0.64089900     -0.16545500
C        0.15496200     -0.20157600      0.32866700
O       -0.17660000     -0.30922800      1.47607600
O       -0.59268600      0.27608600     -0.65843500
C       -1.92310600      0.69937000     -0.29745400
C       -2.86153000     -0.48709500     -0.18998200
H       -2.21341100      1.37167800     -1.10260800
H       -1.86980900      1.25488800      0.63939000
H       -3.87467100     -0.13413400      0.01219500
H       -2.87199100     -1.05033700     -1.12433500
H       -2.55815900     -1.14596700      0.62385100

