%nprocshared=24
%mem=12GB
%chk=ethyl_propiolate_ts1.chk
# ccsd(t)/6-311++g(d,p) sp

Title Card Required

0 2
O        2.17985700      1.37964000     -0.01681600
H        2.82367200      1.22275200      0.69217300
C        2.45487200     -1.18547600     -0.54815200
H        3.33313900     -1.67550100     -0.89930300
C        1.49251500     -0.56001600     -0.16725200
C        0.16055200     -0.19256000      0.32736200
O       -0.17370500     -0.33592200      1.46930000
O       -0.59333600      0.28273200     -0.65479200
C       -1.92569800      0.69565300     -0.28772100
C       -2.86044500     -0.49435900     -0.19590800
H       -2.21818800      1.37835600     -1.08330600
H       -1.87292000      1.23836800      0.65669600
H       -3.87445900     -0.14693600      0.01146900
H       -2.87003400     -1.04480600     -1.13788100
H       -2.55450400     -1.16328900      0.60864200

