%chk=ethyl_propiolate.chk
%nprocshared=24
%mem=12GB
# irc=(calcfc,maxpoints=10,maxcycle=900,stepsize=5) 6-311++g(d,p) m062x

Title Card Required

0 2
 O                  2.09621900    1.33072500   -0.02190600
 H                  2.74825100    1.20256500    0.68333400
 C                  2.38744400   -1.18308200   -0.56475300
 H                  3.25870100   -1.68244300   -0.92150100
 C                  1.46340600   -0.48079100   -0.17352200
 C                  0.10008800   -0.19043400    0.31683900
 O                 -0.23455200   -0.35185700    1.45538900
 O                 -0.65597900    0.28303600   -0.66300700
 C                 -1.98939800    0.69211200   -0.29311700
 C                 -2.92235100   -0.49941000   -0.20907900
 H                 -2.28223300    1.37996100   -1.08407000
 H                 -1.93604900    1.22856700    0.65484000
 H                 -3.93680500   -0.15480000    0.00074900
 H                 -2.93149700   -1.04348700   -1.15476400
 H                 -2.61530800   -1.17325400    0.59092000

