%nprocshared=24
%mem=12GB
%chk=ethyl_propiolate_ts1.chk
# ccsd(t)/6-311++g(d,p) sp

Title Card Required

0 2
O        2.21717400      1.44967900     -0.03907000
H        2.83255700      1.24202900      0.68352200
C        2.45781000     -1.21416400     -0.52655500
H        3.35957600     -1.66971300     -0.86361500
C        1.44425300     -0.67964100     -0.16407000
C        0.15097500     -0.20881700      0.32920100
O       -0.17800400     -0.29526200      1.47942800
O       -0.59235400      0.27159900     -0.66027900
C       -1.92134800      0.70189400     -0.30233300
C       -2.86203000     -0.48236100     -0.18706500
H       -2.20986600      1.36902700     -1.11238500
H       -1.86707200      1.26386300      0.63054000
H       -3.87472100     -0.12663800      0.01241900
H       -2.87285400     -1.05193800     -1.11756000
H       -2.56010800     -1.13622000      0.63138300

