%chk=ethyl_propiolate.chk
%nprocshared=24
%mem=12GB
# ccsd(t)/6-311++g(d,p) sp

Title Card Required

0 2
 O                  2.14015100    1.44983200   -0.01093000
 H                  2.76355000    1.23728900    0.70312600
 C                  2.40258100   -1.18219000   -0.56991700
 H                  3.30243700   -1.63113800   -0.92066600
 C                  1.39367000   -0.64893100   -0.19105500
 C                  0.09237300   -0.21315400    0.31403400
 O                 -0.23686400   -0.34015200    1.46028200
 O                 -0.65643800    0.28529300   -0.66209500
 C                 -1.98849400    0.69528500   -0.29195100
 C                 -2.92101800   -0.49794700   -0.20902200
 H                 -2.28226200    1.38266800   -1.08298100
 H                 -1.93759600    1.23151300    0.65617000
 H                 -3.93588600   -0.15449500    0.00069200
 H                 -2.92881700   -1.04165300   -1.15489900
 H                 -2.61414800   -1.17211500    0.59087400

