%nprocshared=24
%mem=12GB
%chk=ethyl_propiolate_ts1.chk
# freq 6-31+g m062x

Title Card Required

0 2
O        2.10095600      1.34317100     -0.02081700
H        2.75135000      1.20749900      0.68507800
C        2.38919700     -1.18170500     -0.56501600
H        3.26160300     -1.67916400     -0.92128000
C        1.45522300     -0.50036300     -0.17540600
C        0.09984400     -0.19141000      0.31672700
O       -0.23472900     -0.35099700      1.45574900
O       -0.65600300      0.28343900     -0.66295200
C       -1.98933900      0.69226400     -0.29304700
C       -2.92227600     -0.49937700     -0.20907400
H       -2.28236700      1.38006200     -1.08399000
H       -1.93632400      1.22869800      0.65494100
H       -3.93674900     -0.15480900      0.00074600
H       -2.93134100     -1.04345300     -1.15475700
H       -2.61522500     -1.17323300      0.59091600
