%nprocshared=24
%mem=12GB
%chk=ethyl_propiolate_ts1.chk
# ccsd(t)/6-311++g(d,p) sp

Title Card Required

0 2
O        2.18580300      1.39099000     -0.02044000
H        2.82642200      1.22648500      0.69006400
C        2.45570100     -1.18947500     -0.54451900
H        3.33711100     -1.67536800     -0.89327300
C        1.48414300     -0.58060400     -0.16693900
C        0.15947900     -0.19415800      0.32772600
O       -0.17440200     -0.32940800      1.47098900
O       -0.59319400      0.28120800     -0.65571900
C       -1.92510700      0.69644700     -0.29015500
C       -2.86074700     -0.49270800     -0.19436800
H       -2.21717500      1.37654700     -1.08812200
H       -1.87228900      1.24237200      0.65239900
H       -3.87453500     -0.14386900      0.01173100
H       -2.87058600     -1.04639400     -1.13443400
H       -2.55540500     -1.15910800      0.61251800

