%nprocshared=24
%mem=12GB
%chk=ethyl_propiolate_ts1.chk
# freq 6-31+g m062x

Title Card Required

0 2
O        2.15625900      1.49372100     -0.00642500
H        2.75830600      1.24904900      0.71612400
C        2.40493400     -1.18648600     -0.57261700
H        3.31849200     -1.60890700     -0.92081100
C        1.37352500     -0.69868700     -0.19743700
C        0.08668000     -0.22844200      0.31222300
O       -0.23739000     -0.33497300      1.46237700
O       -0.65692500      0.28216100     -0.66206600
C       -1.98719900      0.69739000     -0.29133600
C       -2.92045100     -0.49566600     -0.20874300
H       -2.27959100      1.38484600     -1.08275100
H       -1.93514200      1.23372800      0.65655600
H       -3.93552400     -0.15287200      0.00085400
H       -2.92746900     -1.03910000     -1.15477300
H       -2.61383300     -1.17019500      0.59102600
