%nprocshared=24
%mem=12GB
%chk=ethyl_propiolate_ts1.chk
# freq 6-311++g(d,p) m062x

Title Card Required

0 2
O        2.11526900      1.24696200      0.03545100
H        2.78176100      1.15798800      0.72781500
C        2.43531800     -1.15599800     -0.60451200
H        3.33351600     -1.59381500     -0.98250000
C        1.59386500     -0.30529400     -0.16281700
C        0.16957000     -0.19892900      0.31749800
O       -0.16833900     -0.42178400      1.44516400
O       -0.59538800      0.30775600     -0.63994800
C       -1.93107900      0.69331700     -0.25224100
C       -2.85730000     -0.50534100     -0.22118800
H       -2.22778300      1.41462700     -1.01140000
H       -1.87912900      1.18680100      0.71902900
H       -3.87376500     -0.17658400      0.00384400
H       -2.86352700     -1.00663900     -1.19026600
H       -2.54565400     -1.21238900      0.54770000

