%chk=ethyl_propiolate.chk 
%nprocshared=24 
%mem=12GB 
# ccsd(t)/6-311++g(d,p) sp 

Title Card Required

0 2
 C                  1.29739300   -1.43895900   -1.15003800
 H                  1.69386000   -2.33477400   -1.56889500
 C                  0.84239600   -0.43849400   -0.66172800
 C                  0.34399900    0.87913900   -0.23529300
 O                  0.97177900    1.86616700   -0.48157000
 O                 -0.82337500    0.92302500    0.39871700
 C                 -1.57025800   -0.27814300    0.67019800
 C                 -2.42418200   -0.66849300   -0.52000600
 H                 -0.88542700   -1.07299200    0.96832400
 H                 -2.18577600   -0.01341600    1.52854800
 H                 -3.07945200    0.15574200   -0.80495100
 H                 -1.80501400   -0.93803400   -1.37730800
 H                 -3.04166800   -1.53113700   -0.26109400
 O                  1.42264000   -0.92315300    1.51700900
 H                  2.35714500   -0.72273200    1.34008700

