%chk=ethyl_propiolate.chk 
%nprocshared=24 
%mem=12GB 
# ccsd(t)/6-311++g(d,p) sp 

Title Card Required

0 2
 C                  1.29811200   -1.43774300   -1.14868100
 H                  1.69088600   -2.33074200   -1.57686400
 C                  0.84884100   -0.44168300   -0.64527600
 C                  0.34571400    0.87805200   -0.23028600
 O                  0.97137900    1.86448800   -0.48364400
 O                 -0.82439800    0.92345700    0.39829900
 C                 -1.57139800   -0.27743300    0.67096400
 C                 -2.42379300   -0.66889800   -0.51994600
 H                 -0.88708200   -1.07202200    0.97077900
 H                 -2.18791900   -0.01169700    1.52828700
 H                 -3.07894300    0.15493500   -0.80628500
 H                 -1.80328800   -0.93860100   -1.37626500
 H                 -3.04125200   -1.53164700   -0.26133700
 O                  1.41826800   -0.91979000    1.50241000
 H                  2.35641900   -0.72834700    1.33610100

