%chk=ethyl_propiolate.chk 
%nprocshared=24 
%mem=12GB 
# ccsd(t)/6-311++g(d,p) sp 

Title Card Required

0 2
 C                  1.29181900   -1.41891600   -1.15445000
 H                  1.65450800   -2.29267300   -1.64622000
 C                  0.92732800   -0.49204800   -0.42068400
 C                  0.35598800    0.87198700   -0.20029700
 O                  0.96850300    1.85112300   -0.50032100
 O                 -0.83046100    0.92526000    0.39109800
 C                 -1.57638800   -0.27503900    0.67456200
 C                 -2.42192500   -0.67065500   -0.51946200
 H                 -0.89549700   -1.06689400    0.98789400
 H                 -2.19709600   -0.00251100    1.52655400
 H                 -3.07553800    0.15205000   -0.81218900
 H                 -1.79520000   -0.94060400   -1.37204100
 H                 -3.03969300   -1.53386500   -0.26352600
 O                  1.37210000   -0.88324500    1.34247100
 H                  2.32696000   -0.72981400    1.29995800

