%chk=ethyl_propiolate.chk 
%nprocshared=24 
%mem=12GB 
# ccsd(t)/6-311++g(d,p) sp 

Title Card Required

0 2
 C                  1.29741200   -1.42973300   -1.14582400
 H                  1.67181600   -2.30950700   -1.61596200
 C                  0.88162800   -0.46014000   -0.55657700
 C                  0.35261300    0.87420000   -0.21067200
 O                  0.96975900    1.85715100   -0.49287400
 O                 -0.82819000    0.92461900    0.39491000
 C                 -1.57470600   -0.27565300    0.67327300
 C                 -2.42261700   -0.67013000   -0.51968000
 H                 -0.89194200   -1.06889500    0.97933200
 H                 -2.19405300   -0.00620900    1.52738600
 H                 -3.07702000    0.15282000   -0.81007800
 H                 -1.79796800   -0.94002500   -1.37317600
 H                 -3.04020800   -1.53315100   -0.26242900
 O                  1.39791900   -0.90426700    1.43260700
 H                  2.34809400   -0.73769500    1.32301400

