%chk=ethyl_propiolate.chk 
%nprocshared=24 
%mem=12GB 
# ccsd(t)/6-311++g(d,p) sp 

Title Card Required

0 2
 C                  1.29533111   -1.42501639   -1.14780700
 H                  1.66230611   -2.30003839   -1.63309800
 C                  0.90133011   -0.47338939   -0.49940700
 C                  0.35461011    0.87320661   -0.20440300
 O                  0.96914711    1.85407361   -0.49668100
 O                 -0.82937189    0.92490961    0.39298000
 C                 -1.57559089   -0.27532139    0.67397000
 C                 -2.42223489   -0.67048539   -0.51957200
 H                 -0.89342989   -1.06769939    0.98337500
 H                 -2.19569989   -0.00419339    1.52692800
 H                 -3.07624589    0.15227561   -0.81131200
 H                 -1.79648989   -0.94057039   -1.37245000
 H                 -3.03993389   -1.53355139   -0.26284100
 O                  1.38653011   -0.89516839    1.39310200
 H                  2.33979611   -0.73530039    1.31416400

