%chk=ethyl_propiolate.chk 
%nprocshared=24 
%mem=12GB 
# ccsd(t)/6-311++g(d,p) sp 

Title Card Required

0 2
 C                  1.29608200   -1.42648100   -1.14675200
 H                  1.66491200   -2.30265100   -1.62828100
 C                  0.89480200   -0.46882500   -0.51876100
 C                  0.35414200    0.87346500   -0.20596700
 O                  0.96932500    1.85494000   -0.49562200
 O                 -0.82905100    0.92482500    0.39353200
 C                 -1.57536100   -0.27538600    0.67378400
 C                 -2.42233200   -0.67041600   -0.51959600
 H                 -0.89298400   -1.06800700    0.98214500
 H                 -2.19528600   -0.00470700    1.52704600
 H                 -3.07645000    0.15238300   -0.81101000
 H                 -1.79686300   -0.94049500   -1.37258600
 H                 -3.04001600   -1.53344800   -0.26267300
 O                  1.39025300   -0.89821000    1.40607300
 H                  2.34277000   -0.73633300    1.31767600

