%chk=ethyl_propiolate.chk 
%nprocshared=24 
%mem=12GB 
# ccsd(t)/6-311++g(d,p) sp 

Title Card Required

0 2
 C                  2.91436370    1.31151920    0.31915001
 H                  3.67724670    2.03863920    0.47362301
 C                  2.05802770    0.49211120    0.14457901
 C                  1.05079670   -0.53054080   -0.09334799
 O                  1.27954270   -1.61083280   -0.55549799
 O                 -0.16395130   -0.10055180    0.27109401
 C                 -1.24395130   -1.02963780    0.04883301
 C                 -2.48764930   -0.38850480    0.59367201
 H                 -1.31851030   -1.22428580   -1.02292399
 H                 -1.00638730   -1.96968380    0.55400201
 H                 -2.42699630   -0.16148180    1.65717001
 H                 -2.61882830    0.66525720    0.03984501
 H                 -3.38827630   -0.95027180    0.34897101
 O                 -2.30267630    1.80575020   -0.58370799
 H                 -1.36388930    1.83129720   -0.33338099

