%chk=ethyl_propiolate.chk 
%nprocshared=24 
%mem=12GB 
# ccsd(t)/6-311++g(d,p) sp 

Title Card Required

0 2
 C                  2.91439900    1.31154400    0.31914800
 H                  3.67743800    2.03845500    0.47367400
 C                  2.05807500    0.49212000    0.14456900
 C                  1.05065100   -0.53052700   -0.09333200
 O                  1.27961400   -1.61079500   -0.55550300
 O                 -0.16391900   -0.10037400    0.27093400
 C                 -1.24403500   -1.03043300    0.04911500
 C                 -2.48872600   -0.38928100    0.59438800
 H                 -1.31828600   -1.22392500   -1.02289200
 H                 -1.00478300   -1.96987000    0.55324600
 H                 -2.42584200   -0.17213800    1.66009300
 H                 -2.63744200    0.62724600    0.06095100
 H                 -3.38420400   -0.96330700    0.35710900
 O                 -2.30124800    1.81067100   -0.58633600
 H                 -1.36230900    1.82933300   -0.33231100

