%chk=ethyl_propiolate.chk 
%nprocshared=24 
%mem=12GB 
# ccsd(t)/6-311++g(d,p) sp 

Title Card Required

0 2
 C                  2.91434300    1.31148000    0.31915000
 H                  3.67726000    2.03858000    0.47360500
 C                  2.05799100    0.49209400    0.14458200
 C                  1.05091800   -0.53054800   -0.09337100
 O                  1.27948100   -1.61086300   -0.55550000
 O                 -0.16398500   -0.10068500    0.27121400
 C                 -1.24391300   -1.02889600    0.04854200
 C                 -2.48682200   -0.38899500    0.59365500
 H                 -1.31878800   -1.22449300   -1.02301900
 H                 -1.00774500   -1.96965300    0.55450100
 H                 -2.42776900   -0.15242700    1.65492300
 H                 -2.60346300    0.70800000    0.01694600
 H                 -3.39165500   -0.94027600    0.34260700
 O                 -2.30378400    1.80178800   -0.58156400
 H                 -1.36542400    1.83306400   -0.33428800

