%chk=ethyl_propiolate.chk 
%nprocshared=24 
%mem=12GB 
# ccsd(t)/6-311++g(d,p) sp 

Title Card Required

0 2
 C                  2.91449800    1.31160600    0.31916000
 H                  3.67774200    2.03825900    0.47378600
 C                  2.05818900    0.49214700    0.14455600
 C                  1.05034800   -0.53041400   -0.09332400
 O                  1.27977500   -1.61066400   -0.55548900
 O                 -0.16398100   -0.09982400    0.27045500
 C                 -1.24426600   -1.03179100    0.04948000
 C                 -2.49203900   -0.39720600    0.59924100
 H                 -1.31802200   -1.22328900   -1.02293400
 H                 -1.00082800   -1.97052500    0.55140700
 H                 -2.42191600   -0.19528700    1.66774400
 H                 -2.68326800    0.58023700    0.08830200
 H                 -3.37331200   -1.00097300    0.37986800
 O                 -2.29714900    1.82387300   -0.59338500
 H                 -1.35947700    1.82332000   -0.33035300

