%chk=ethyl_propiolate.chk 
%nprocshared=24 
%mem=12GB 
# ccsd(t)/6-311++g(d,p) sp 

Title Card Required

0 2
 C                  2.16779000   -1.33584400    0.00000500
 H                  3.06388000   -1.91117900    0.00000500
 C                  1.12867600   -0.73353200    0.00000500
 C                  0.01004100    0.19377100    0.00000500
 O                  0.16587500    1.38699000    0.00000800
 O                 -1.16228600   -0.42691700   -0.00000100
 C                 -2.32374100    0.42898300   -0.00000200
 C                 -3.53786100   -0.46978300   -0.00000500
 H                 -2.28062700    1.06842100    0.88386100
 H                 -2.28062300    1.06842300   -0.88386400
 H                 -3.54574900   -1.10546600   -0.88613700
 H                 -3.54575200   -1.10546800    0.88612600
 H                 -4.44372300    0.13868200   -0.00000600
 O                  3.55567600    0.51976800   -0.00001200
 H                  2.83779300    1.17819500   -0.00000800

