%chk=ethyl_propiolate.chk 
%nprocshared=24 
%mem=12GB 
# ccsd(t)/6-311++g(d,p) sp 

Title Card Required

0 2
 C                  2.18719200   -1.30464000    0.00000500
 H                  3.07988700   -1.88518200    0.00000500
 C                  1.13122400   -0.73010100    0.00000500
 C                  0.00982100    0.19358600    0.00000500
 O                  0.16533700    1.38681500    0.00000800
 O                 -1.16211100   -0.42763300   -0.00000100
 C                 -2.32356200    0.42857100   -0.00000200
 C                 -3.53796200   -0.46975700   -0.00000500
 H                 -2.28022200    1.06799000    0.88385300
 H                 -2.28021900    1.06799100   -0.88385700
 H                 -3.54612100   -1.10542700   -0.88614400
 H                 -3.54612400   -1.10542800    0.88613300
 H                 -4.44358700    0.13906200   -0.00000600
 O                  3.53884100    0.49418700   -0.00001200
 H                  2.83521400    1.16750100   -0.00000800

