%chk=ethyl_propiolate.chk 
%nprocshared=24 
%mem=12GB 
# ccsd(t)/6-311++g(d,p) sp 

Title Card Required

0 2
 C                  2.30827100   -1.11723000    0.00000500
 H                  3.05568100   -1.88572700    0.00000800
 C                  1.12665800   -0.74051100    0.00000500
 C                  0.00976900    0.19240900    0.00000500
 O                  0.16760300    1.38456200    0.00000900
 O                 -1.16215700   -0.42858600   -0.00000100
 C                 -2.32396000    0.42848400   -0.00000200
 C                 -3.53830600   -0.46959400   -0.00000500
 H                 -2.27985700    1.06756400    0.88399800
 H                 -2.27985300    1.06756600   -0.88400000
 H                 -3.54683300   -1.10509900   -0.88625100
 H                 -3.54683500   -1.10510200    0.88623800
 H                 -4.44365800    0.13955400   -0.00000600
 O                  3.45263800    0.36960100   -0.00001200
 H                  2.81532500    1.10163200   -0.00000400

