%chk=ethyl_propiolate.chk 
%nprocshared=24 
%mem=12GB 
# ccsd(t)/6-311++g(d,p) sp 

Title Card Required

0 2
 C                  2.28435400   -1.15190400    0.00000500
 H                  3.07230100   -1.87475300    0.00000800
 C                  1.13049200   -0.73544300    0.00000500
 C                  0.00941100    0.19233000    0.00000500
 O                  0.16720500    1.38456400    0.00000900
 O                 -1.16212000   -0.42866600   -0.00000100
 C                 -2.32386400    0.42845800   -0.00000200
 C                 -3.53828300   -0.46955900   -0.00000500
 H                 -2.27978200    1.06755200    0.88398400
 H                 -2.27977800    1.06755500   -0.88398600
 H                 -3.54679900   -1.10510300   -0.88622600
 H                 -3.54680200   -1.10510700    0.88621300
 H                 -4.44362800    0.13960300   -0.00000600
 O                  3.46679100    0.39030800   -0.00001300
 H                  2.82155400    1.11664800   -0.00000300

