%chk=ethyl_propiolate.chk 
%nprocshared=24 
%mem=12GB 
# ccsd(t)/6-311++g(d,p) sp 

Title Card Required

0 2
 C                  1.81193100   -0.14611400    0.90697400
 H                  2.55359200   -0.42836600    1.63028800
 C                  0.75386000    0.46292400    0.63727800
 C                 -0.36881700    1.09358200   -0.04516000
 O                 -0.23964300    2.15043500   -0.59802900
 O                 -1.53907700    0.45658200   -0.00832700
 C                 -1.63430800   -0.87408500    0.53634200
 C                 -1.14912900   -1.91118500   -0.45661600
 H                 -1.08339400   -0.92246800    1.47882500
 H                 -2.69504700   -0.98975400    0.75228800
 H                 -1.70560000   -1.82390900   -1.39104400
 H                 -0.08233600   -1.79804100   -0.66351900
 H                 -1.31278800   -2.91088300   -0.04864400
 O                  2.33678300   -1.00047600   -0.61227400
 H                  2.45155600   -0.25304500   -1.21622800

