%chk=ethyl_propiolate.chk 
%nprocshared=24 
%mem=12GB 
# ccsd(t)/6-311++g(d,p) sp 

Title Card Required

0 2
 C                  1.81771100   -0.15529200    0.88874900
 H                  2.54569300   -0.42293900    1.63325700
 C                  0.75274300    0.46419500    0.63944000
 C                 -0.36837900    1.09310100   -0.04501600
 O                 -0.23951600    2.15054400   -0.59804900
 O                 -1.53930300    0.45653300   -0.00829700
 C                 -1.63436600   -0.87399600    0.53626200
 C                 -1.14902500   -1.91116100   -0.45657100
 H                 -1.08359300   -0.92244400    1.47891400
 H                 -2.69508700   -0.98994400    0.75222500
 H                 -1.70540300   -1.82386200   -1.39105200
 H                 -0.08221100   -1.79800500   -0.66351100
 H                 -1.31258100   -2.91090500   -0.04867700
 O                  2.33356800   -0.99474200   -0.60094400
 H                  2.45043900   -0.25175400   -1.20916900

