%chk=ethyl_propiolate.chk 
%nprocshared=24 
%mem=12GB 
# ccsd(t)/6-311++g(d,p) sp 

Title Card Required

0 2
 C                  2.26129421   -1.18658325    0.00000490
 H                  3.08375921   -1.86612225    0.00000690
 C                  1.13262021   -0.73191725    0.00000490
 C                  0.00944621    0.19236075    0.00000490
 O                  0.16670821    1.38486175    0.00000890
 O                 -1.16210779   -0.42865125   -0.00000110
 C                 -2.32370979    0.42842075   -0.00000210
 C                 -3.53825579   -0.46950525   -0.00000510
 H                 -2.27972179    1.06761775    0.88393690
 H                 -2.27971779    1.06761975   -0.88393910
 H                 -3.54679579   -1.10504725   -0.88622010
 H                 -3.54679879   -1.10504925    0.88620790
 H                 -4.44355779    0.13976175   -0.00000610
 O                  3.48176621    0.41191175   -0.00001210
 H                  2.82657821    1.13016275   -0.00000710

