%chk=ethyl_propiolate.chk 
%nprocshared=24 
%mem=12GB 
# ccsd(t)/6-311++g(d,p) sp 

Title Card Required

0 2
 C                 -2.52462700    0.21655700   -1.13497300
 H                 -3.41568000    0.47487900   -1.65866300
 C                 -1.52717100   -0.00548200   -0.48293700
 C                 -0.25799500   -0.59331200   -0.03122200
 O                 -0.18371200   -1.66087000    0.50652500
 O                  0.76077900    0.20536000   -0.31718200
 C                  2.05270300   -0.25555900    0.12550800
 C                  3.05822000    0.80266700   -0.26237200
 H                  2.00927500   -0.40980000    1.20552300
 H                  2.25799100   -1.21807000   -0.34758500
 H                  3.06764800    0.94725500   -1.34333500
 H                  2.81633200    1.75290100    0.21478700
 H                  4.05568800    0.49565600    0.05646100
 O                 -1.70096400    1.15671900    1.17149500
 H                 -2.49311700    0.73612900    1.54085800

