%chk=ethyl_propiolate.chk 
%nprocshared=24 
%mem=12GB 
# ccsd(t)/6-311++g(d,p) sp 

Title Card Required

0 2
 C                 -2.53614800    0.22119800   -1.14154400
 H                 -3.44463800    0.51849000   -1.61090900
 C                 -1.50506100   -0.09194000   -0.61069400
 C                 -0.25499600   -0.60967100   -0.05676300
 O                 -0.17913300   -1.65853400    0.51924600
 O                  0.76054200    0.20434500   -0.31737900
 C                  2.05132000   -0.25276000    0.13099500
 C                  3.05795700    0.80277600   -0.26191000
 H                  2.00877400   -0.40345700    1.21142700
 H                  2.25676200   -1.21738600   -0.33829200
 H                  3.06528500    0.94454400   -1.34325900
 H                  2.81900800    1.75483900    0.21313400
 H                  4.05557600    0.49501200    0.05577700
 O                 -1.71218600    1.22361000    1.26839000
 H                 -2.49576800    0.73878400    1.57655100

