%chk=ethyl_propiolate.chk 
%nprocshared=24 
%mem=12GB 
# ccsd(t)/6-311++g(d,p) sp 

Title Card Required

0 2
 C                 -2.52933400    0.21952100   -1.13545400
 H                 -3.42599200    0.48915900   -1.64297300
 C                 -1.51824500   -0.03998300   -0.53266500
 C                 -0.25749900   -0.59741400   -0.03774500
 O                 -0.18214500   -1.66021400    0.51058800
 O                  0.76094200    0.20571300   -0.31611700
 C                  2.05240400   -0.25504100    0.12663000
 C                  3.05827200    0.80254400   -0.26241800
 H                  2.01037000   -0.40940900    1.20666500
 H                  2.25714100   -1.21781700   -0.34638500
 H                  3.06698600    0.94668900   -1.34344800
 H                  2.81717200    1.75316300    0.21440100
 H                  4.05584800    0.49533300    0.05589600
 O                 -1.70515900    1.18098300    1.20627300
 H                 -2.49752300    0.74040200    1.55332300

