%chk=ethyl_propiolate.chk 
%nprocshared=24 
%mem=12GB 
# ccsd(t)/6-311++g(d,p) sp 

Title Card Required

0 2
 C                 -2.53392200    0.22112500   -1.13834600
 H                 -3.43759700    0.50650100   -1.62410900
 C                 -1.51011000   -0.07216300   -0.58049500
 C                 -0.25618900   -0.60400700   -0.04797900
 O                 -0.18030600   -1.65928500    0.51564500
 O                  0.76078800    0.20540200   -0.31598000
 C                  2.05193800   -0.25398000    0.12873800
 C                  3.05819700    0.80260200   -0.26222400
 H                  2.01037700   -0.40718500    1.20889900
 H                  2.25656700   -1.21747600   -0.34308400
 H                  3.06607300    0.94579300   -1.34338200
 H                  2.81822400    1.75385400    0.21392200
 H                  4.05584000    0.49508600    0.05560800
 O                 -1.70927300    1.20616000    1.24281800
 H                 -2.49836500    0.74084000    1.56564700

