%chk=ethyl_propiolate.chk 
%nprocshared=24 
%mem=12GB 
# ccsd(t)/6-311++g(d,p) sp 

Title Card Required

0 2
 C                  2.36585300   -1.02982300    0.00000400
 H                  3.01073400   -1.89452400    0.00000800
 C                  1.11791400   -0.75682900    0.00000500
 C                  0.01254900    0.19223700    0.00000500
 O                  0.16846300    1.38541200    0.00000900
 O                 -1.16229700   -0.42798400   -0.00000100
 C                 -2.32384900    0.42851500   -0.00000200
 C                 -3.53835500   -0.46959000   -0.00000500
 H                 -2.28034000    1.06782200    0.88394700
 H                 -2.28033600    1.06782400   -0.88394800
 H                 -3.54680300   -1.10514800   -0.88623900
 H                 -3.54680600   -1.10515100    0.88622600
 H                 -4.44384600    0.13938900   -0.00000600
 O                  3.41680700    0.31762000   -0.00001200
 H                  2.80305200    1.06711600   -0.00000400

