%chk=ethyl_propiolate.chk 
%nprocshared=24 
%mem=12GB 
# ccsd(t)/6-311++g(d,p) sp 

Title Card Required

0 2
 C                 -2.52609500    0.21770200   -1.13473200
 H                 -3.41876400    0.47915500   -1.65384900
 C                 -1.52415300   -0.01722200   -0.49975400
 C                 -0.25794900   -0.59434100   -0.03289000
 O                 -0.18325000   -1.66067900    0.50771000
 O                  0.76085500    0.20551600   -0.31680100
 C                  2.05260500   -0.25543300    0.12579400
 C                  3.05824600    0.80259900   -0.26242600
 H                  2.00967800   -0.40978200    1.20581200
 H                  2.25769200   -1.21802000   -0.34731100
 H                  3.06742600    0.94698600   -1.34342900
 H                  2.81664400    1.75297200    0.21458100
 H                  4.05575300    0.49546500    0.05617300
 O                 -1.70235200    1.16467200    1.18286300
 H                 -2.49495800    0.73817200    1.54531300

