%chk=ethyl_propiolate.chk 
%nprocshared=24 
%mem=12GB 
# ccsd(t)/6-311++g(d,p) sp 

Title Card Required

0 2
 C                 -2.52770400    0.21867600   -1.13495500
 H                 -3.42227500    0.48396400   -1.64860400
 C                 -1.52115000   -0.02871100   -0.51629300
 C                 -0.25777600   -0.59574500   -0.03512800
 O                 -0.18272000   -1.66046100    0.50908900
 O                  0.76091500    0.20563600   -0.31643500
 C                  2.05250900   -0.25526500    0.12616100
 C                  3.05826300    0.80256000   -0.26243800
 H                  2.01005900   -0.40966800    1.20618600
 H                  2.25741900   -1.21792700   -0.34693400
 H                  3.06722400    0.94686900   -1.34344500
 H                  2.81688500    1.75304200    0.21450000
 H                  4.05580500    0.49541200    0.05604000
 O                 -1.70376000    1.17278800    1.19448600
 H                 -2.49639600    0.73947400    1.54939500

