%chk=ethyl_propiolate.chk 
%nprocshared=24 
%mem=12GB 
# ccsd(t)/6-311++g(d,p) sp 

Title Card Required

0 2
 C                  2.20722200   -1.27197200    0.00000500
 H                  3.08986700   -1.86823300    0.00000500
 C                  1.13293500   -0.72844100    0.00000500
 C                  0.00969900    0.19314100    0.00000500
 O                  0.16545800    1.38626900    0.00000800
 O                 -1.16207800   -0.42813600   -0.00000100
 C                 -2.32350200    0.42838500   -0.00000200
 C                 -3.53805900   -0.46969700   -0.00000500
 H                 -2.27997100    1.06776400    0.88386300
 H                 -2.27996800    1.06776500   -0.88386600
 H                 -3.54636600   -1.10535300   -0.88615200
 H                 -3.54636900   -1.10535400    0.88614100
 H                 -4.44355800    0.13930500   -0.00000600
 O                  3.52198500    0.46947000   -0.00001200
 H                  2.83337900    1.15771100   -0.00000900

