%chk=ethyl_propiolate.chk 
%nprocshared=24 
%mem=12GB 
# ccsd(t)/6-311++g(d,p) sp 

Title Card Required

0 2
 C                 -2.51829600    0.20892000   -1.14025800
 H                 -3.40637400    0.46355200   -1.67198000
 C                 -1.54226800    0.05511600   -0.39665200
 C                 -0.25819800   -0.59050600   -0.02698100
 O                 -0.18541700   -1.66159200    0.50211200
 O                  0.76045900    0.20443000   -0.31892100
 C                  2.05308500   -0.25599100    0.12459200
 C                  3.05822600    0.80261600   -0.26257000
 H                  2.00760000   -0.40945400    1.20462400
 H                  2.25889500   -1.21847600   -0.34808700
 H                  3.06815500    0.94723100   -1.34354300
 H                  2.81589000    1.75261200    0.21473600
 H                  4.05559500    0.49558400    0.05653700
 O                 -1.69367600    1.11836700    1.11707600
 H                 -2.48293800    0.72450700    1.51535100

