%chk=ethyl_propiolate.chk 
%nprocshared=24 
%mem=12GB 
# ccsd(t)/6-311++g(d,p) sp 

Title Card Required

0 2
 C                  2.37656900   -1.01216900    0.00000400
 H                  3.00300300   -1.89189000    0.00000800
 C                  1.11689000   -0.76036000    0.00000500
 C                  0.01339600    0.19203100    0.00000500
 O                  0.16866000    1.38564500    0.00000900
 O                 -1.16231900   -0.42779700   -0.00000100
 C                 -2.32376400    0.42851700   -0.00000200
 C                 -3.53835800   -0.46958100   -0.00000500
 H                 -2.28048600    1.06791000    0.88392200
 H                 -2.28048200    1.06791200   -0.88392400
 H                 -3.54677600   -1.10516700   -0.88622600
 H                 -3.54677900   -1.10517000    0.88621300
 H                 -4.44389300    0.13935200   -0.00000600
 O                  3.40926700    0.30696000   -0.00001200
 H                  2.80145900    1.06103800   -0.00000400

