%nprocshared=4
%mem=150MW
%chk=ethyl_propiolate.chk
# opt=(calcfc,tight,ts,noeigentest) freq 6-311++g(d,p) m062x

Title Card Required

0 2
 C                 -3.13896200   -1.33514500    0.30488800
 H                 -3.92256000   -2.03811200    0.48511800
 C                 -2.25460300   -0.54640700    0.09850400
 C                 -1.21313600    0.43522000   -0.17531700
 O                 -1.37794100    1.43806600   -0.82106100
 O                 -0.05421100    0.07579900    0.38919900
 C                  1.03163400    0.97965900    0.15237900
 C                  2.24558800    0.39590200    0.81668700
 H                  1.17528800    1.09329200   -0.92609000
 H                  0.77264000    1.96307600    0.56359700
 H                  2.08035500    0.11012400    1.85717400
 H                  2.47248800   -0.64521100    0.22750500
 H                  3.12703400    1.02974400    0.70572000
 O                  2.75490800   -1.49346300   -0.72150700
 H                  3.68958400   -1.25149800   -0.86892600

