%nprocshared=4
%mem=150MW
%chk=ethyl_propiolate.chk
# irc=(calcfc,maxpoints=10,maxcycle=900,stepsize=5) 6-311++g(d,p) geom=connectivity m062x

Title Card Required

0 2
 C                  3.34091800   -0.49075300   -0.43877300
 H                  4.33433500   -0.75773900   -0.71471100
 C                  2.22346300   -0.19191000   -0.12814100
 C                  0.88615100    0.21835400    0.26220700
 O                  0.62819100    1.27470800    0.77310900
 O                 -0.01320400   -0.72810800   -0.01712800
 C                 -1.35654300   -0.45044600    0.35852500
 C                 -2.23173000   -1.58819000   -0.08768800
 H                 -1.40682400   -0.21910000    1.42455300
 H                 -1.69453300    0.53306200   -0.19345300
 H                 -2.15181400   -1.72989700   -1.16583900
 H                 -1.93639500   -2.51411200    0.41157300
 H                 -3.27027400   -1.36965400    0.16271700
 O                 -1.85388000    1.80980500   -0.69787200
 H                 -1.13690200    2.22387100   -0.18649100

 1 2 1.0 3 3.0
 2
 3 4 1.0
 4 5 2.0 6 1.5
 5
 6 7 1.0
 7 8 1.0 9 1.0
 8 11 1.0 12 1.0 13 1.0
 9
 10
 11
 12
 13
 14 15 1.0
 15

