%nprocshared=4
%mem=150MW
%chk=ethyl_propiolate.chk
# irc=(calcfc,maxpoints=10,maxcycle=900,stepsize=5) 6-311++g(d,p) geom=connectivity m062x

Title Card Required

0 2
 C                  2.98309800    1.30964900    0.30522000
 H                  3.74598100    2.03676900    0.45969300
 C                  2.12676200    0.49024100    0.13064900
 C                  1.11953100   -0.53241100   -0.10727800
 O                  1.34827700   -1.61270300   -0.56942800
 O                 -0.09521700   -0.10242200    0.25716400
 C                 -1.17521700   -1.03150800    0.03490300
 C                 -2.41891500   -0.39037500    0.57974200
 H                 -1.24977600   -1.22615600   -1.03685400
 H                 -0.93765300   -1.97155400    0.54007200
 H                 -2.35826200   -0.16335200    1.64324000
 H                 -2.55009400    0.66338700    0.02591500
 H                 -3.31954200   -0.95214200    0.33504100
 O                 -2.23394200    1.80388000   -0.59763800
 H                 -1.29515500    1.82942700   -0.34731100

 1 2 1.0 3 3.0
 2
 3 4 1.0
 4 5 2.0 6 1.5
 5
 6 7 1.0
 7 8 1.0 9 1.0 10 1.0
 8 11 1.0 13 1.0
 9
 10
 11
 12
 13
 14 15 1.0
 15

