%chk=ethyl_propiolate.chk 
%nprocshared=24 
%mem=12GB 
# ccsd(t)/6-311++g(d,p) sp 

Title Card Required

0 2
 C                 -1.77204600   -0.16078300    1.01690600
 H                 -2.57976800   -0.60294100    1.55290500
 C                 -0.80680700    0.41580900    0.57581700
 C                  0.33262700    1.12618000   -0.01240400
 O                  0.40231700    2.31936100    0.02061700
 O                  1.27112800    0.37868300   -0.59146200
 C                  1.18871200   -1.06262500   -0.58168200
 C                  1.75809100   -1.62619700    0.70474300
 H                  0.15570400   -1.37510600   -0.74756200
 H                  1.78591600   -1.36131300   -1.44169700
 H                  2.78186100   -1.27910000    0.85079800
 H                  1.15831000   -1.32635200    1.56594100
 H                  1.76275000   -2.71690500    0.65727100
 O                 -2.35795100   -1.14916600   -0.77881000
 H                 -2.54280400   -0.35054900   -1.29949200

