%chk=ethyl_propiolate.chk 
%nprocshared=24 
%mem=12GB 
# ccsd(t)/6-311++g(d,p) sp 

Title Card Required

0 2
 C                 -1.83248900   -0.26115900    0.81927200
 H                 -2.52169000   -0.56529100    1.58853500
 C                 -0.79722600    0.42456200    0.58973200
 C                  0.33057700    1.12360300   -0.01281600
 O                  0.40013500    2.32060600    0.02109100
 O                  1.27270000    0.37842600   -0.58994900
 C                  1.18763500   -1.06286800   -0.58174600
 C                  1.75773300   -1.62650900    0.70450300
 H                  0.15372100   -1.37408400   -0.74951800
 H                  1.78432100   -1.36217700   -1.44183300
 H                  2.78140000   -1.27903800    0.85023200
 H                  1.15937900   -1.32700400    1.56718900
 H                  1.76219000   -2.71717700    0.65786700
 O                 -2.32099700   -1.08209600   -0.64886400
 H                 -2.52691500   -0.33931600   -1.23197800

