%chk=ethyl_propiolate.chk 
%nprocshared=24 
%mem=12GB 
# ccsd(t)/6-311++g(d,p) sp 

Title Card Required

0 2
 C                 -1.82716700   -0.25216400    0.83765500
 H                 -2.52988000   -0.56963100    1.58715800
 C                 -0.79823000    0.42352300    0.58726500
 C                  0.33115700    1.12392700   -0.01276600
 O                  0.40021600    2.32049100    0.02116500
 O                  1.27243200    0.37851400   -0.59000900
 C                  1.18766500   -1.06300000   -0.58175700
 C                  1.75777000   -1.62646700    0.70451900
 H                  0.15372900   -1.37409600   -0.74943900
 H                  1.78449900   -1.36197000   -1.44183200
 H                  2.78145200   -1.27907800    0.85035200
 H                  1.15927700   -1.32703700    1.56712500
 H                  1.76218100   -2.71712600    0.65779500
 O                 -2.32397100   -1.08792000   -0.66039100
 H                 -2.52785500   -0.33982100   -1.23815200

