%nprocshared=24
%mem=12GB
%chk=ethyl_propiolate.chk
# opt=(calcfc,tight,noeigentest) freq 6-31+g m062x

12182

0 1
 O                 -0.46070000    0.84940000    0.23800000
 O                 -0.10260000   -1.40810000   -0.12390000
 C                 -1.76260000    0.82650000   -0.35670000
 C                 -2.54300000   -0.34030000    0.20980000
 C                  0.29380000   -0.26280000    0.03140000
 C                  1.70080000    0.04160000    0.01010000
 C                  2.87420000    0.29390000   -0.00860000
 H                 -2.25060000    1.76950000   -0.09170000
 H                 -1.68070000    0.77880000   -1.44780000
 H                 -3.61610000   -0.13480000    0.12570000
 H                 -2.37990000   -1.26290000   -0.35470000
 H                 -2.31280000   -0.52450000    1.26410000
 H                  3.91530000    0.51780000   -0.02520000

 1 3 1.0 5 1.0
 2 5 2.0
 3 4 1.0 8 1.0 9 1.0
 4 10 1.0 11 1.0 12 1.0
 5 6 1.0
 6 7 3.0
 7 13 1.0
 8
 9
 10
 11
 12
 13

