%chk=E:\Research\Ethyl_Propiolate\conformers\conformer_00002F9600000003.chk
# hf/3-21g geom=connectivity

12182

0 1
 O                 -0.51730000    0.65680000    0.37820000
 O                  0.11070000   -1.53930000    0.00630000
 C                 -1.87620000    0.24980000    0.57030000
 C                 -2.59190000    0.27580000   -0.76330000
 C                  0.35830000   -0.34670000    0.10410000
 C                  1.69900000    0.14680000   -0.07340000
 C                  2.81740000    0.55670000   -0.22230000
 H                 -1.94380000   -0.73540000    1.04560000
 H                 -2.33680000    0.97090000    1.25330000
 H                 -3.64920000    0.02410000   -0.64130000
 H                 -2.51670000    1.26670000   -1.22330000
 H                 -2.14280000   -0.43520000   -1.46420000
 H                  3.80960000    0.92050000   -0.35440000

 1 3 1.0 5 1.0
 2 5 2.0
 3 4 1.0 8 1.0 9 1.0
 4 10 1.0 11 1.0 12 1.0
 5 6 1.0
 6 7 3.0
 7 13 1.0
 8
 9
 10
 11
 12
 13

