%chk=E:\Research\Ethyl_Propiolate\conformers\conformer_00002F9600000001.chk
# hf/3-21g geom=connectivity

12182

0 1
 O                 -0.59850000    0.38490000   -0.00040000
 O                  0.48270000   -1.66110000    0.00010000
 C                 -1.87030000   -0.27190000    0.00020000
 C                 -2.96530000    0.77340000    0.00010000
 C                  0.48300000   -0.43920000   -0.00030000
 C                  1.71870000    0.29960000    0.00020000
 C                  2.74980000    0.91430000    0.00000000
 H                 -1.95750000   -0.89980000   -0.89360000
 H                 -1.95700000   -0.89900000    0.89460000
 H                 -3.95340000    0.30480000    0.00060000
 H                 -2.88030000    1.42050000    0.87930000
 H                 -2.88090000    1.41980000   -0.87970000
 H                  3.66450000    1.45970000   -0.00010000

 1 3 1.0 5 1.0
 2 5 2.0
 3 4 1.0 8 1.0 9 1.0
 4 10 1.0 11 1.0 12 1.0
 5 6 1.0
 6 7 3.0
 7 13 1.0
 8
 9
 10
 11
 12
 13

