%nprocshared=24
%mem=12GB
%chk=ethyl_propiolate.chk
# opt=(calcfc,tight,noeigentest) freq 6-31+g m062x

0  1
O          -0.66010        -0.18350        -0.69650
O           0.70830        -1.74140         0.33100
C          -1.84710        -0.27890         0.09770
C          -2.43450         1.10500         0.27480
C           0.47930        -0.61980        -0.09620
C           1.46530         0.42460         0.00310
C           2.28880         1.29410         0.08600
H          -2.55420        -0.92270        -0.43510
H          -1.64410        -0.73070         1.07600
H          -3.36160         1.06470         0.85330
H          -1.72550         1.76160         0.78980
H          -2.64420         1.56300        -0.69740
H           3.01910         2.06570         0.15950

