!Put Keywords Here, check Charge and Multiplicity.
#

 12182

0  1
O           1.10236        -0.12818        -0.18298
O           3.08866        -0.40949         0.95255
C           0.39963        -0.83404         0.84909
C           0.50175        -2.33442         0.64633
C           2.43557         0.03162         0.02000
C           3.05257         0.82972        -1.01070
C           3.57699         1.50599        -1.85503
H           0.75646        -0.53869         1.84290
H          -0.64984        -0.52867         0.78263
H           1.53299        -2.67920         0.77098
H          -0.12847        -2.86448         1.36656
H           0.19160        -2.61053        -0.36652
H           4.05096         2.11096        -2.59419

