!Put Keywords Here, check Charge and Multiplicity.
#

 12182

0  1
O          -0.66000        -0.18300         0.69630
O           0.70810        -1.74130        -0.33080
C          -1.84750        -0.27900        -0.09720
C          -2.43500         1.10470        -0.27500
C           0.47920        -0.61940         0.09570
C           1.46580         0.42430        -0.00270
C           2.28930         1.29370        -0.08620
H          -1.64490        -0.73150        -1.07520
H          -2.55410        -0.92240         0.43640
H          -3.36240         1.06400        -0.85300
H          -2.64420         1.56350         0.69700
H          -1.72630         1.76100        -0.79080
H           3.01970         2.06520        -0.16030

