%nprocshared=24
%mem=12GB
%chk=ethyl_propiolate.chk
# opt=(calcfc,tight,noeigentest) freq 6-31+g m062x

12182

0 1
 O                 -0.57430000    0.43390000    0.43510000
 O                  0.28690000   -1.64550000   -0.10360000
 C                 -1.63500000    0.55870000   -0.51790000
 C                 -2.94130000    0.17800000    0.14550000
 C                  0.40680000   -0.44710000    0.10290000
 C                  1.69220000    0.19420000    0.00880000
 C                  2.76470000    0.72760000   -0.07090000
 H                 -1.66980000    1.60410000   -0.84070000
 H                 -1.45890000   -0.06330000   -1.40350000
 H                 -3.77930000    0.29200000   -0.54780000
 H                 -2.90870000   -0.86000000    0.49240000
 H                 -3.12390000    0.80240000    1.02630000
 H                  3.71610000    1.20080000   -0.14160000

 1 3 1.0 5 1.0
 2 5 2.0
 3 4 1.0 8 1.0 9 1.0
 4 10 1.0 11 1.0 12 1.0
 5 6 1.0
 6 7 3.0
 7 13 1.0
 8
 9
 10
 11
 12
 13

