%nprocshared=24
%mem=12GB
%chk=ethyl_propiolate.chk
# opt=(calcfc,tight,noeigentest) freq 6-31+g m062x

0  1
O          -0.51740        -0.65640         0.37920
O           0.11080         1.53940         0.00580
C          -1.87630        -0.24930         0.57020
C          -2.59140        -0.27650        -0.76380
C           0.35830         0.34690         0.10470
C           1.69880        -0.14690        -0.07380
C           2.81720        -0.55700        -0.22220
H          -2.33740        -0.96980         1.25350
H          -1.94430         0.73630         1.04450
H          -3.64880        -0.02470        -0.64260
H          -2.14190         0.43390        -1.46510
H          -2.51590        -1.26790        -1.22280
H           3.80940        -0.92090        -0.35390

