%nprocshared=24
%mem=12GB
%chk=ethyl_propiolate.chk
# opt=(calcfc,tight,noeigentest) freq 6-31+g m062x

0  1
O          -0.51730         0.65680         0.37820
O           0.11070        -1.53930         0.00630
C          -1.87620         0.24980         0.57030
C          -2.59190         0.27580        -0.76330
C           0.35830        -0.34670         0.10410
C           1.69900         0.14680        -0.07340
C           2.81740         0.55670        -0.22230
H          -1.94380        -0.73540         1.04560
H          -2.33680         0.97090         1.25330
H          -3.64920         0.02410        -0.64130
H          -2.51670         1.26670        -1.22330
H          -2.14280        -0.43520        -1.46420
H           3.80960         0.92050        -0.35440

