%chk=E:\Research\Ethyl_Propiolate\conformers\conformer_00002F9600000007.chk
# hf/3-21g geom=connectivity

12182

0 1
 O                 -0.57430000    0.43350000   -0.43580000
 O                  0.28690000   -1.64550000    0.10390000
 C                 -1.63460000    0.55910000    0.51760000
 C                 -2.94130000    0.17800000   -0.14490000
 C                  0.40680000   -0.44730000   -0.10350000
 C                  1.69200000    0.19430000   -0.00830000
 C                  2.76450000    0.72770000    0.07090000
 H                 -1.45810000   -0.06230000    1.40370000
 H                 -1.66920000    1.60480000    0.83960000
 H                 -3.77890000    0.29260000    0.54870000
 H                 -3.12420000    0.80190000   -1.02600000
 H                 -2.90900000   -0.86030000   -0.49090000
 H                  3.71600000    1.20100000    0.14110000

 1 3 1.0 5 1.0
 2 5 2.0
 3 4 1.0 8 1.0 9 1.0
 4 10 1.0 11 1.0 12 1.0
 5 6 1.0
 6 7 3.0
 7 13 1.0
 8
 9
 10
 11
 12
 13

