%nprocshared=24
%mem=12GB
%chk=ethyl_propiolate.chk
# opt=(calcfc,tight,noeigentest) freq 6-31+g m062x

12182

0 1
 O                 -0.51740000   -0.65640000    0.37920000
 O                  0.11080000    1.53940000    0.00580000
 C                 -1.87630000   -0.24930000    0.57020000
 C                 -2.59140000   -0.27650000   -0.76380000
 C                  0.35830000    0.34690000    0.10470000
 C                  1.69880000   -0.14690000   -0.07380000
 C                  2.81720000   -0.55700000   -0.22220000
 H                 -2.33740000   -0.96980000    1.25350000
 H                 -1.94430000    0.73630000    1.04450000
 H                 -3.64880000   -0.02470000   -0.64260000
 H                 -2.14190000    0.43390000   -1.46510000
 H                 -2.51590000   -1.26790000   -1.22280000
 H                  3.80940000   -0.92090000   -0.35390000

 1 3 1.0 5 1.0
 2 5 2.0
 3 4 1.0 8 1.0 9 1.0
 4 10 1.0 11 1.0 12 1.0
 5 6 1.0
 6 7 3.0
 7 13 1.0
 8
 9
 10
 11
 12
 13

