%nprocshared=24
%mem=12GB
%chk=ethyl_propiolate.chk
# opt=(calcfc,tight,noeigentest) freq 6-31+g m062x

 12182

0  1
O           1.07065         0.03726         0.13245
O           3.05407         1.17167        -0.16813
C           0.36674         1.27997         0.26733
C           0.47509         1.81759         1.68229
C           2.40118         0.14107        -0.11193
C           3.01777        -1.14412        -0.34042
C           3.54215        -2.20625        -0.54580
H           0.71767         2.01338        -0.46789
H          -0.68384         1.07409         0.03697
H           1.50678         2.09417         1.92077
H          -0.15640         2.70247         1.80724
H           0.16951         1.05923         2.41001
H           4.01841        -3.13930        -0.74132

