%nprocshared=24
%mem=12GB
%chk=ethyl_propiolate.chk
# opt=(calcfc,tight,noeigentest) freq 6-31+g m062x

12182

0 1
 O                 -0.49850000   -0.68240000    0.60380000
 O                 -0.04770000    1.51860000    0.04920000
 C                 -1.62620000   -0.96190000   -0.23250000
 C                 -2.51520000    0.26210000   -0.28680000
 C                  0.28510000    0.35240000    0.19880000
 C                  1.63720000   -0.06940000   -0.05890000
 C                  2.76530000   -0.41930000   -0.27350000
 H                 -1.29030000   -1.26980000   -1.22850000
 H                 -2.16490000   -1.79930000    0.22130000
 H                 -3.50880000   -0.01860000   -0.65220000
 H                 -2.62830000    0.72860000    0.69720000
 H                 -2.13440000    1.01390000   -0.98440000
 H                  3.76600000   -0.72990000   -0.46390000

 1 3 1.0 5 1.0
 2 5 2.0
 3 4 1.0 8 1.0 9 1.0
 4 10 1.0 11 1.0 12 1.0
 5 6 1.0
 6 7 3.0
 7 13 1.0
 8
 9
 10
 11
 12
 13

