%nprocshared=24
%mem=12GB
%chk=ethyl_propiolate.chk
# opt=(calcfc,tight,noeigentest) freq 6-31+g m062x

0  1
O          -0.46070         0.84940         0.23800
O          -0.10260        -1.40810        -0.12390
C          -1.76260         0.82650        -0.35670
C          -2.54300        -0.34030         0.20980
C           0.29380        -0.26280         0.03140
C           1.70080         0.04160         0.01010
C           2.87420         0.29390        -0.00860
H          -2.25060         1.76950        -0.09170
H          -1.68070         0.77880        -1.44780
H          -3.61610        -0.13480         0.12570
H          -2.37990        -1.26290        -0.35470
H          -2.31280        -0.52450         1.26410
H           3.91530         0.51780        -0.02520

