%nprocshared=24
%mem=12GB
%chk=ethyl_propiolate.chk
# opt=(calcfc,tight,noeigentest) freq 6-31+g m062x

 12182

0  1
O           1.08144         0.05259         0.05386
O           3.06422         0.04692        -1.12003
C           0.37786         0.49598        -1.11442
C           0.48860         2.00081        -1.27691
C           2.41240        -0.15740        -0.10732
C           3.03042        -0.69416         1.08176
C           3.55497        -1.15605         2.05984
H           0.72960        -0.03035        -2.00949
H          -0.67317         0.22169        -0.97503
H           1.52171         2.29978        -1.47969
H          -0.13892         2.34653        -2.10370
H           0.18061         2.51340        -0.36000
H           4.02940        -1.57420         2.91689

