!Put Keywords Here, check Charge and Multiplicity.
#

 12182

0  1
O           1.22698        -0.07874        -0.10166
O           3.23266        -1.02147         0.53061
C           0.52193        -1.29623         0.19245
C           0.63032        -2.29624        -0.94563
C           2.56290        -0.07582         0.14343
C           3.16767         1.22135        -0.08662
C           3.69666         2.28608        -0.25542
H           0.85511        -1.73086         1.14282
H          -0.53063        -1.02117         0.32028
H           1.65921        -2.64717        -1.06938
H          -0.00863        -3.16569        -0.75921
H           0.32838        -1.83765        -1.89244
H           4.18862         3.22087        -0.39201

