%nprocshared=24
%mem=12GB
%chk=ethyl_propiolate.chk
# opt=(calcfc,tight,noeigentest) freq 6-31+g m062x

0  1
O          -0.59850         0.38490        -0.00040
O           0.48270        -1.66110         0.00010
C          -1.87030        -0.27190         0.00020
C          -2.96530         0.77340         0.00010
C           0.48300        -0.43920        -0.00030
C           1.71870         0.29960         0.00020
C           2.74980         0.91430         0.00000
H          -1.95750        -0.89980        -0.89360
H          -1.95700        -0.89900         0.89460
H          -3.95340         0.30480         0.00060
H          -2.88030         1.42050         0.87930
H          -2.88090         1.41980        -0.87970
H           3.66450         1.45970        -0.00010

