%nprocshared=24
%mem=12GB
%chk=ethyl_propiolate.chk
# opt=(calcfc,tight,noeigentest) freq 6-31+g m062x


 12182

0  1
O           1.17714         0.06703        -0.18178
O           3.16109        -0.90706         0.47384
C           0.47487        -1.15256         0.09439
C           0.58598        -2.11997        -1.06964
C           2.50804         0.04937         0.08495
C           3.12380         1.33821        -0.12214
C           3.64442         2.41045        -0.27419
H           0.82641        -1.60743         1.02797
H          -0.57625        -0.88491         0.24547
H           1.61904        -2.45450        -1.20624
H          -0.04185        -2.99987        -0.90061
H           0.27830        -1.63943        -2.00380
H           4.11318         3.35919        -0.39662

