%nprocshared=24
%mem=12GB
%chk=ethyl_propiolate.chk
# opt=(calcfc,tight,noeigentest) freq 6-31+g m062x

0  1
O          -0.57430         0.43350        -0.43580
O           0.28690        -1.64550         0.10390
C          -1.63460         0.55910         0.51760
C          -2.94130         0.17800        -0.14490
C           0.40680        -0.44730        -0.10350
C           1.69200         0.19430        -0.00830
C           2.76450         0.72770         0.07090
H          -1.45810        -0.06230         1.40370
H          -1.66920         1.60480         0.83960
H          -3.77890         0.29260         0.54870
H          -3.12420         0.80190        -1.02600
H          -2.90900        -0.86030        -0.49090
H           3.71600         1.20100         0.14110

