%nprocshared=24
%mem=12GB
%chk=ethyl_propiolate.chk
# opt=(calcfc,tight,noeigentest) freq 6-31+g m062x

 12182

0  1
O           1.20973        -0.02485        -0.08625
O           3.18849        -1.18880         0.13174
C           0.50298        -1.25117        -0.31530
C           0.61294        -1.67674        -1.76788
C           2.54124        -0.15259         0.14963
C           3.16158         1.11148         0.46311
C           3.68644         2.15679         0.74243
H           0.85237        -2.04036         0.36100
H          -0.54730        -1.06181        -0.06987
H           1.64607        -1.92817        -2.02711
H          -0.01432        -2.55186        -1.96165
H           0.30409        -0.86476        -2.43379
H           4.15743         3.07669         0.99872

