%nprocshared=24
%mem=12GB
%chk=ethyl_propiolate_ts1.chk
# freq 6-311++g(d,p) m062x

Title Card Required

0 2
C       -2.79753700     -0.43965800     -0.41275300
H       -3.83966900     -0.48609600     -0.63169700
C       -1.62525300     -0.19445900     -0.10448900
C       -0.21983500     -0.59875400      0.14482900
O        0.13839800     -1.19345700      1.11828700
O        0.56127200     -0.16531000     -0.83998400
C        1.98103000     -0.31901900     -0.63122400
C        2.50202500      0.75400900      0.30421900
H        2.40684100     -0.23003000     -1.62893700
H        2.17146900     -1.31977200     -0.24215100
H        3.58458800      0.65611400      0.40612800
H        2.27660400      1.74555800     -0.09041600
H        2.05105200      0.65531400      1.29188000
O       -1.46725500      1.57939000      0.41469600
H       -1.55278900      2.00121100     -0.45228600

