%nprocshared=24
%mem=12GB
%chk=ethyl_propiolate_ts1.chk
# freq 6-311++g(d,p) m062x

Title Card Required

0 2
C       -2.80582200     -0.43754200     -0.39653200
H       -3.84974100     -0.46975500     -0.60588200
C       -1.63147000     -0.34081200     -0.13425600
C       -0.22093600     -0.60487600      0.15963600
O        0.14559800     -1.15777100      1.15565300
O        0.55981200     -0.18717700     -0.83463500
C        1.97905600     -0.33665800     -0.62384600
C        2.50365800      0.76128900      0.27973900
H        2.40373900     -0.27693900     -1.62433600
H        2.16877800     -1.32609700     -0.20634700
H        3.58636100      0.66595300      0.38252900
H        2.27894700      1.74159500     -0.14279800
H        2.05428800      0.69038700      1.27046900
O       -1.45948000      1.68329800      0.39502000
H       -1.55671900      2.01964700     -0.51037800

