%nprocshared=24
%mem=12GB
%chk=ethyl_propiolate_ts1.chk
# freq 6-31+g m062x

Title Card Required

0 2
C        2.74439200     -0.40676800      0.41569800
H        3.78816800     -0.43661900      0.62611100
C        1.57023200     -0.31302600      0.15148700
C        0.15983600     -0.58039200     -0.14007400
O       -0.20616000     -1.14537200     -1.12948500
O       -0.62147600     -0.15039400      0.84849500
C       -2.04061200     -0.30216600      0.63862200
C       -2.56439900      0.78473500     -0.27868600
H       -2.46593700     -0.23011500      1.63802700
H       -2.23026400     -1.29660700      0.23314800
H       -3.64705400      0.68836000     -0.38101100
H       -2.33976400      1.77009800      0.13196100
H       -2.11439700      0.70161600     -1.26817800
O        1.39900200      1.70448400     -0.40265200
H        1.49571800      2.05187700      0.49862300
