%chk=ethyl_propiolate_non_planar.chk
%mem=12GB
%nprocshared=24
# irc=(calcfc,maxpoints=10,maxcycle=900,stepsize=5) 6-311++g(d,p) m062x

Title Card Required

0 2
 C                  2.73836100   -0.41456400    0.41528800
 H                  3.78045300   -0.46567400    0.63247300
 C                  1.56612400   -0.21174500    0.12336200
 C                  0.15854000   -0.57176700   -0.14235500
 O                 -0.20136200   -1.14835900   -1.12627300
 O                 -0.62180300   -0.15245400    0.84938900
 C                 -2.04149500   -0.30345400    0.63917200
 C                 -2.56372400    0.78429100   -0.27832500
 H                 -2.46664700   -0.23089800    1.63851800
 H                 -2.23180500   -1.29783300    0.23398800
 H                 -3.64634400    0.68788000   -0.38101900
 H                 -2.33839400    1.76939700    0.13225600
 H                 -2.11344400    0.70159700   -1.26776500
 O                  1.40383300    1.63762800   -0.38473100
 H                  1.49363700    2.03006500    0.49668900

