%nprocshared=24
%mem=12GB
%chk=ethyl_propiolate_ts1.chk
# freq 6-31+g m062x

Title Card Required

0 2
C        2.75380000     -0.40665100      0.41998400
H        3.80091600     -0.38156600      0.61326200
C        1.57561600     -0.42323200      0.18564700
C        0.16185700     -0.60607500     -0.13299900
O       -0.21558600     -1.14068400     -1.13569300
O       -0.61834300     -0.15029800      0.84690600
C       -2.03835300     -0.29792300      0.63739600
C       -2.56517200      0.78703800     -0.27987000
H       -2.46267000     -0.22552500      1.63730600
H       -2.22885900     -1.29247600      0.23240000
H       -3.64794800      0.68875100     -0.37956700
H       -2.34202000      1.77333900      0.12946700
H       -2.11681500      0.70348900     -1.26990700
O        1.39207200      1.79148400     -0.42636000
H        1.47590000      2.06488300      0.50239400

