%nprocshared=24
%mem=12GB
%chk=ethyl_propiolate_ts1.chk
# ccsd(t)/6-311++g(d,p) sp

Title Card Required

0 2
C       -2.81489100     -0.44369800     -0.38641100
H       -3.86209200     -0.43451200     -0.58059300
C       -1.63655300     -0.43689400     -0.15001200
C       -0.22272800     -0.62230300      0.16743900
O        0.15432700     -1.12984800      1.18418500
O        0.55609800     -0.20483300     -0.83013200
C        1.97613100     -0.34820800     -0.61893000
C        2.50536000      0.76643300      0.26064800
H        2.39852700     -0.30968800     -1.62151200
H        2.16616200     -1.32896100     -0.18140700
H        3.58823500      0.67106500      0.36187700
H        2.28177000      1.73858900     -0.18099400
H        2.05869000      0.71625100      1.25373100
O       -1.45196900      1.76405900      0.37921300
H       -1.54286500      2.02025200     -0.55363600

