%nprocshared=24
%mem=12GB
%chk=ethyl_propiolate_ts1.chk
# freq 6-31+g m062x

Title Card Required

0 2
C        2.74606700     -0.40611600      0.41612400
H        3.79041900     -0.42847700      0.62421300
C        1.57104200     -0.33237900      0.15726500
C        0.16014400     -0.58344400     -0.13922000
O       -0.20747800     -1.14461000     -1.13037500
O       -0.62124800     -0.15003600      0.84823200
C       -2.04037000     -0.30172900      0.63845200
C       -2.56458400      0.78492000     -0.27880700
H       -2.46565400     -0.22978500      1.63790300
H       -2.22988800     -1.29619300      0.23293600
H       -3.64725000      0.68842400     -0.38092300
H       -2.34012600      1.77036200      0.13178900
H       -2.11469300      0.70175300     -1.26832400
O        1.39787400      1.71845100     -0.40645800
H        1.49495700      2.05475100      0.49921100
