%chk=ethyl_propiolate_non_planar.chk
%mem=12GB
%nprocshared=24
# irc=(calcfc,maxpoints=10,maxcycle=900,stepsize=5) 6-311++g(d,p) m062x

Title Card Required

0 2
 C                  2.74951000   -0.40559200    0.41725200
 H                  3.79511400   -0.41035200    0.61984900
 C                  1.57277800   -0.36997900    0.16894800
 C                  0.16077000   -0.59107100   -0.13707300
 O                 -0.21046000   -1.14295800   -1.13238900
 O                 -0.62048400   -0.14959000    0.84765000
 C                 -2.03976300   -0.30056300    0.63805000
 C                 -2.56495600    0.78547500   -0.27913900
 H                 -2.46481500   -0.22870000    1.63764100
 H                 -2.22920500   -1.29508300    0.23256000
 H                 -3.64765400    0.68850500   -0.38058600
 H                 -2.34092400    1.77114900    0.13118700
 H                 -2.11544000    0.70221500   -1.26876600
 O                  1.39552700    1.74693800   -0.41425000
 H                  1.49124900    2.05951200    0.50041100

