%nprocshared=24
%mem=12GB
%chk=ethyl_propiolate_ts1.chk
# ccsd(t)/6-311++g(d,p) sp

Title Card Required

0 2
C       -2.80410300     -0.43693000     -0.39868900
H       -3.84741800     -0.47517700     -0.61045200
C       -1.63064500     -0.32056400     -0.13049300
C       -0.22061900     -0.60280500      0.15780800
O        0.14415800     -1.16313600      1.15010400
O        0.56017300     -0.18400100     -0.83548100
C        1.97944400     -0.33420300     -0.62486000
C        2.50333900      0.76027500      0.28342400
H        2.40437300     -0.27022000     -1.62496100
H        2.16929100     -1.32531900     -0.21144800
H        3.58601400      0.66466300      0.38623600
H        2.27849500      1.74222500     -0.13515600
H        2.05364100      0.68532900      1.27372100
O       -1.46081300      1.66783600      0.39797800
H       -1.55703800      2.01827400     -0.50189600

