%nprocshared=24
%mem=12GB
%chk=ethyl_propiolate_ts1.chk
# ccsd(t)/6-311++g(d,p) sp

Title Card Required

0 2
C       -2.78557400     -0.45135400     -0.42920400
H       -3.83285800     -0.44455100     -0.64073100
C       -1.62098300     -0.07030200     -0.07365400
C       -0.22397600     -0.59830800      0.13002500
O        0.13446900     -1.22416000      1.08427900
O        0.56271500     -0.14508500     -0.84402600
C        1.98239000     -0.30195000     -0.63723400
C        2.50035800      0.74802700      0.32622100
H        2.41019000     -0.18678600     -1.63143300
H        2.17421600     -1.31179500     -0.27336500
H        3.58287400      0.64894000      0.42744400
H        2.27453100      1.74915300     -0.04336800
H        2.04826700      0.62376100      1.31055300
O       -1.47499600      1.49169800      0.42870600
H       -1.54801800      1.98496800     -0.39769300

