%nprocshared=24
%mem=12GB
%chk=ethyl_propiolate_ts1.chk
# freq 6-31+g m062x

Title Card Required

0 2
C        2.73927900     -0.41242300      0.41517500
H        3.78150600     -0.46151200      0.63164200
C        1.56698300     -0.23244400      0.12891900
C        0.15870000     -0.57281300     -0.14210300
O       -0.20212000     -1.14784800     -1.12678300
O       -0.62178500     -0.15205000      0.84925800
C       -2.04135200     -0.30325900      0.63910600
C       -2.56382400      0.78433100     -0.27839400
H       -2.46653200     -0.23071100      1.63845900
H       -2.23157200     -1.29766600      0.23393600
H       -3.64645100      0.68796500     -0.38105900
H       -2.33859000      1.76949700      0.13215000
H       -2.11359300      0.70147900     -1.26784400
O        1.40297500      1.65063200     -0.38820400
H        1.49446100      2.03519100      0.49693800

