%chk=ethyl_propiolate_non_planar.chk
%mem=12GB
%nprocshared=24
# ccsd(t)/6-311++g(d,p) sp

Title Card Required

0 2
 C                  2.73083700   -0.43263200    0.41658900
 H                  3.77605000   -0.45787400    0.63035600
 C                  1.56090500   -0.08647800    0.09034400
 C                  0.16091400   -0.56792900   -0.14304800
 O                 -0.19776800   -1.15111100   -1.12348200
 O                 -0.62209200   -0.15445700    0.85002300
 C                 -2.04203800   -0.30441300    0.63961500
 C                 -2.56325900    0.78402600   -0.27806000
 H                 -2.46763400   -0.23151700    1.63872400
 H                 -2.23307500   -1.29855600    0.23434900
 H                 -3.64586100    0.68775200   -0.38108200
 H                 -2.33772600    1.76906600    0.13253700
 H                 -2.11291100    0.70158800   -1.26753200
 O                  1.40909000    1.56139600   -0.36401900
 H                  1.48706200    2.00181000    0.49216300

