%nprocshared=24
%mem=12GB
%chk=ethyl_propiolate_ts1.chk
# freq 6-31+g m062x

Title Card Required

0 2
C        2.74279400     -0.40767900      0.41536800
H        3.78601900     -0.44432900      0.62785400
C        1.56945800     -0.29335400      0.14576200
C        0.15951300     -0.57775800     -0.14080200
O       -0.20493600     -1.14609300     -1.12865600
O       -0.62162500     -0.15079700      0.84873500
C       -2.04083000     -0.30253300      0.63877100
C       -2.56422400      0.78458800     -0.27859100
H       -2.46615300     -0.23037000      1.63814800
H       -2.23063500     -1.29695500      0.23335400
H       -3.64687000      0.68827500     -0.38105800
H       -2.33942500      1.76988100      0.13208300
H       -2.11413800      0.70153900     -1.26806500
O        1.40008700      1.69070500     -0.39892500
H        1.49599500      2.04843500      0.49810900
