%nprocshared=24
%mem=12GB
%chk=ethyl_propiolate_ts1.chk
# freq 6-311++g(d,p) m062x

Title Card Required

0 2
C       -2.80268100     -0.43669400     -0.40088400
H       -3.84550100     -0.47941800     -0.61470100
C       -1.62979800     -0.29995100     -0.12655800
C       -0.22031000     -0.60136600      0.15584000
O        0.14293400     -1.16834800      1.14470000
O        0.56043200     -0.18087700     -0.83629000
C        1.97978000     -0.33169800     -0.62591900
C        2.50305900      0.75925900      0.28701000
H        2.40487000     -0.26341600     -1.62565000
H        2.16976700     -1.32448900     -0.21664600
H        3.58571200      0.66331100      0.38975800
H        2.27806600      1.74286000     -0.12752800
H        2.05310100      0.68025000      1.27688500
O       -1.46202600      1.65265300      0.40089800
H       -1.55703500      2.01617500     -0.49350600

