%nprocshared=24
%mem=12GB
%chk=ethyl_propiolate_ts1.chk
# freq 6-311++g(d,p) m062x

Title Card Required

0 2
C       -2.79118600     -0.44671300     -0.42346500
H       -3.83608000     -0.46558800     -0.63943600
C       -1.62196000     -0.11072900     -0.08431000
C       -0.22195200     -0.59868000      0.13505900
O        0.13577500     -1.21366000      1.09622300
O        0.56214600     -0.15213500     -0.84271100
C        1.98190400     -0.30800100     -0.63534600
C        2.50105800      0.74991000      0.31848900
H        2.40884600     -0.20188700     -1.63089800
H        2.17308700     -1.31484800     -0.26283600
H        3.58358400      0.65101600      0.41981900
H        2.27539300      1.74781300     -0.05969800
H        2.04938400      0.63456100      1.30406000
O       -1.47196400      1.52135400      0.42440200
H       -1.54905300      1.98973100     -0.41689000

