%chk=ethyl_propiolate_non_planar.chk
%mem=12GB
%nprocshared=24
# freq 6-311++g(d,p) m062x

Title Card Required

0 2
 C                  2.75253100   -0.40595100    0.41909000
 H                  3.79930800   -0.39118800    0.61520300
 C                  1.57472400   -0.40602500    0.17996100
 C                  0.16144000   -0.60069900   -0.13433800
 O                 -0.21381700   -1.14133000   -1.13456100
 O                 -0.61921800   -0.14979300    0.84711800
 C                 -2.03890700   -0.29893300    0.63760400
 C                 -2.56520700    0.78639800   -0.27958200
 H                 -2.46348200   -0.22689200    1.63741300
 H                 -2.22883800   -1.29348300    0.23237300
 H                 -3.64794000    0.68860700   -0.38001900
 H                 -2.34173400    1.77246400    0.13012600
 H                 -2.11638900    0.70299600   -1.26945700
 O                  1.39325400    1.77634500   -0.42226600
 H                  1.48231600    2.06321500    0.50179000

