%nprocshared=24
%mem=12GB
%chk=ethyl_propiolate_ts1.chk
# ccsd(t)/6-311++g(d,p) sp

Title Card Required

0 2
C       -2.81772800     -0.44769400     -0.38263100
H       -3.86557500     -0.41899400     -0.57133500
C       -1.63873100     -0.47188700     -0.15486700
C       -0.22384200     -0.63228300      0.17051600
O        0.15812100     -1.11901700      1.19569200
O        0.55343200     -0.21362700     -0.82837600
C        1.97423800     -0.35234300     -0.61709700
C        2.50553000      0.76869300      0.25296600
H        2.39536100     -0.32154600     -1.62051100
H        2.16561600     -1.32948500     -0.17207600
H        3.58851700      0.67262500      0.35271600
H        2.28267600      1.73775400     -0.19582000
H        2.06057400      0.72669700      1.24713100
O       -1.44862000      1.79853300      0.37238200
H       -1.52743400      2.01892200     -0.57100700

