%chk=ethyl_propiolate_non_planar.chk
%mem=12GB
%nprocshared=24
# irc=(calcfc,maxpoints=10,maxcycle=900,stepsize=5) 6-311++g(d,p) m062x

Title Card Required

0 2
 C                  2.72561600   -0.43969100    0.41662200
 H                  3.77330200   -0.44048600    0.62626000
 C                  1.55991100   -0.04550100    0.07952400
 C                  0.16309900   -0.56619900   -0.14339800
 O                 -0.19650500   -1.15204200   -1.12229800
 O                 -0.62219800   -0.15502800    0.85024000
 C                 -2.04209700   -0.30480700    0.63976700
 C                 -2.56310900    0.78390700   -0.27796800
 H                 -2.46808900   -0.23181400    1.63872100
 H                 -2.23350700   -1.29878800    0.23436500
 H                 -3.64570900    0.68784500   -0.38119000
 H                 -2.33767800    1.76897700    0.13271900
 H                 -2.11279700    0.70143600   -1.26749100
 O                  1.41120700    1.53595800   -0.35682200
 H                  1.48528900    1.99433900    0.48933500

