%nprocshared=24
%mem=12GB
%chk=ethyl_propiolate_ts1.chk
# ccsd(t)/6-311++g(d,p) sp

Title Card Required

0 2
C       -2.80032000     -0.43698500     -0.40545200
H       -3.84250300     -0.48524000     -0.62231400
C       -1.62808700     -0.25812000     -0.11824000
C       -0.21983700     -0.59952400      0.15165000
O        0.14082800     -1.17856800      1.13403500
O        0.56081200     -0.17466400     -0.83783200
C        1.98034800     -0.32666000     -0.62803400
C        2.50259100      0.75719000      0.29401100
H        2.40571200     -0.24999800     -1.62700100
H        2.17054300     -1.32270800     -0.22690400
H        3.58520300      0.66046000      0.39648400
H        2.27738300      1.74401800     -0.11253800
H        2.05217800      0.67026400      1.28302800
O       -1.46427400      1.62283100      0.40662100
H       -1.55561300      2.01100700     -0.47695600

