%chk=ethyl_propiolate_non_planar.chk
%mem=12GB
%nprocshared=24
# irc=(calcfc,maxpoints=10,maxcycle=900,stepsize=5) 6-311++g(d,p) m062x

Title Card Required

0 2
 C                  2.73568300   -0.42282000    0.41602100
 H                  3.77836500   -0.46934000    0.63311500
 C                  1.56323000   -0.14898000    0.10678200
 C                  0.15898000   -0.56981800   -0.14272900
 O                 -0.19949900   -1.14974700   -1.12493900
 O                 -0.62191400   -0.15351600    0.84971500
 C                 -2.04182900   -0.30392100    0.63939000
 C                 -2.56347900    0.78416500   -0.27818400
 H                 -2.46705500   -0.23118400    1.63866400
 H                 -2.23244100   -1.29822700    0.23422900
 H                 -3.64608700    0.68772800   -0.38100300
 H                 -2.33794500    1.76920400    0.13235600
 H                 -2.11312600    0.70167300   -1.26761800
 O                  1.40633400    1.59940700   -0.37447100
 H                  1.49037200    2.01493700    0.49508800

