%nprocshared=24
%mem=12GB
%chk=ethyl_propiolate_ts1.chk
# ccsd(t)/6-311++g(d,p) sp

Title Card Required

0 2
C       -2.79502800     -0.44277300     -0.41797700
H       -3.83810600     -0.47925000     -0.63633000
C       -1.62341800     -0.15224600     -0.09461800
C       -0.22058200     -0.59873800      0.14001800
O        0.13704800     -1.20344400      1.10750900
O        0.56166400     -0.15886200     -0.84136400
C        1.98145600     -0.31367300     -0.63332400
C        2.50159800      0.75191600      0.31118900
H        2.40774000     -0.21626600     -1.63004100
H        2.17218500     -1.31749100     -0.25242700
H        3.58413900      0.65342600      0.41276100
H        2.27605900      1.74662500     -0.07533300
H        2.05028600      0.64507600      1.29786000
O       -1.46942500      1.55053400      0.41970600
H       -1.55074900      1.99514800     -0.43502900

