%nprocshared=24
%mem=12GB
%chk=ethyl_propiolate_ts1.chk
# ccsd(t)/6-311++g(d,p) sp

Title Card Required

0 2
C       -2.79641800     -0.44110100     -0.41533100
H       -3.83890700     -0.48347900     -0.63419000
C       -1.62429800     -0.17329000     -0.09961500
C       -0.22013200     -0.59873500      0.14244500
O        0.13770700     -1.19842900      1.11294900
O        0.56145700     -0.16211500     -0.84067800
C        1.98124200     -0.31638100     -0.63228100
C        2.50182300      0.75295400      0.30767100
H        2.40726800     -0.22321300     -1.62951600
H        2.17180800     -1.31867200     -0.24727600
H        3.58437400      0.65474000      0.40940300
H        2.27634100      1.74608000     -0.08293000
H        2.05068100      0.65022600      1.29484900
O       -1.46830400      1.56498600      0.41723900
H       -1.55174700      1.99809900     -0.44375500

