%nprocshared=24
%mem=12GB
%chk=ethyl_propiolate_ts1.chk
# freq 6-31+g m062x

Title Card Required

0 2
C        2.73671300     -0.41985700      0.41576500
H        3.77899900     -0.46963100      0.63323900
C        1.56417700     -0.16992400      0.11229800
C        0.15867400     -0.57040600     -0.14262800
O       -0.20008800     -1.14929000     -1.12538300
O       -0.62186600     -0.15317800      0.84961100
C       -2.04173100     -0.30376900      0.63931700
C       -2.56355600      0.78420700     -0.27822700
H       -2.46689900     -0.23108700      1.63862500
H       -2.23223200     -1.29810800      0.23416400
H       -3.64616700      0.68775700     -0.38099900
H       -2.33806700      1.76926000      0.13231500
H       -2.11321800      0.70166300     -1.26765800
O        1.40548900      1.61209200     -0.37789700
H        1.49151500      2.01979100      0.49576600
