%chk=ethyl_propiolate_non_planar.chk
%mem=12GB
%nprocshared=24
# irc=(calcfc,maxpoints=10,maxcycle=900,stepsize=5) 6-311++g(d,p) m062x

Title Card Required

0 2
 C                  2.73280200   -0.42923800    0.41645300
 H                  3.77696700   -0.46356600    0.63170100
 C                  1.56157600   -0.10721600    0.09579900
 C                  0.16009500   -0.56861600   -0.14292700
 O                 -0.19835200   -1.15065500   -1.12399800
 O                 -0.62203000   -0.15415500    0.84992000
 C                 -2.04198300   -0.30424000    0.63953900
 C                 -2.56333200    0.78407600   -0.27810200
 H                 -2.46742400   -0.23139500    1.63871300
 H                 -2.23286100   -1.29844800    0.23432200
 H                 -3.64593500    0.68772700   -0.38104400
 H                 -2.33777600    1.76910900    0.13246500
 H                 -2.11297500    0.70163500   -1.26755700
 O                  1.40812400    1.57407800   -0.36754200
 H                  1.48811200    2.00594000    0.49329500

