%nprocshared=24
%mem=12GB
%chk=ethyl_propiolate_ts1.chk
# freq 6-311++g(d,p) m062x

Title Card Required

0 2
C       -2.81642900     -0.44559800     -0.38442600
H       -3.86401800     -0.42659200     -0.57582500
C       -1.63765700     -0.45471800     -0.15264900
C       -0.22325800     -0.62709700      0.16897800
O        0.15625300     -1.12434300      1.18994900
O        0.55484900     -0.20904700     -0.82924200
C        1.97525000     -0.35031100     -0.61800500
C        2.50553500      0.76753400      0.25679500
H        2.39704000     -0.31573000     -1.62100200
H        2.16581200     -1.32927200     -0.17667600
H        3.58846800      0.67184700      0.35731900
H        2.28230700      1.73812300     -0.18848000
H        2.05966800      0.72146700      1.25040400
O       -1.45030800      1.78108500      0.37583600
H       -1.53627500      2.01973900     -0.56225300

