%chk=ethyl_propiolate.chk 
%nprocshared=24 
%mem=12GB 
# ccsd(t)/6-311++g(d,p) sp 

Title Card Required

0 2
 C                  2.46963400    1.29406900   -0.67200200
 H                  3.09834500    2.09199100   -0.99255800
 C                  1.76911800    0.39082300   -0.31025700
 C                  0.98312700   -0.75518700    0.15193700
 O                  1.49180900   -1.78444500    0.47504900
 O                 -0.34945100   -0.59201200    0.19154100
 C                 -0.93864800    0.65746200   -0.19251200
 C                 -1.09416700    1.59507400    0.97673700
 H                 -0.38846800    1.09386600   -1.02740000
 H                 -1.93299300    0.40283100   -0.59047400
 H                 -1.62689300    1.09929500    1.78942100
 H                 -0.12066100    1.93085500    1.34102200
 H                 -1.66948000    2.46958100    0.66739600
 O                 -3.19493900   -0.50078800   -0.68302300
 H                 -2.75195000   -1.31224800   -0.37712500

