%chk=ethyl_propiolate.chk 
%nprocshared=24 
%mem=12GB 
# ccsd(t)/6-311++g(d,p) sp 

Title Card Required

0 2
 C                 -1.64732500   -0.31218500   -0.04635900
 H                 -2.98630100   -0.94347600    0.05162200
 C                 -0.61812000    0.32282000   -0.03519600
 C                  0.65546600    1.04932500    0.02272000
 O                  0.68747200    2.19820200    0.34798400
 O                  1.75647800    0.38063600   -0.31777900
 C                  1.71383800   -1.02704600   -0.61529300
 C                  1.76748600   -1.85143700    0.65532600
 H                  0.82596000   -1.25145000   -1.20916900
 H                  2.59522600   -1.19135600   -1.23302500
 H                  2.65385700   -1.59298500    1.23618200
 H                  0.88138700   -1.68228000    1.26929100
 H                  1.81139100   -2.91319600    0.40490400
 O                 -3.95643400   -0.61885500   -0.08234900
 H                 -4.05925100    0.12110300    0.53171000

