%chk=ethyl_propiolate.chk 
%nprocshared=24 
%mem=12GB 
# ccsd(t)/6-311++g(d,p) sp 

Title Card Required

0 2
 C                 -1.65202300   -0.31329400   -0.04467400
 H                 -2.87882700   -0.87763900    0.01541800
 C                 -0.62083200    0.31945200   -0.03505300
 C                  0.65362000    1.04908000    0.02236100
 O                  0.68739500    2.19795900    0.34801300
 O                  1.75601300    0.38057500   -0.31775400
 C                  1.71381500   -1.02698000   -0.61527700
 C                  1.76748800   -1.85146200    0.65531800
 H                  0.82601500   -1.25171200   -1.20913000
 H                  2.59530100   -1.19129700   -1.23293900
 H                  2.65385300   -1.59294600    1.23617700
 H                  0.88134000   -1.68219400    1.26915200
 H                  1.81143600   -2.91324800    0.40493200
 O                 -3.95508900   -0.61965600   -0.08083200
 H                 -4.06854700    0.12912100    0.52512500

