%chk=ethyl_propiolate.chk 
%nprocshared=24 
%mem=12GB 
# ccsd(t)/6-311++g(d,p) sp 

Title Card Required

0 2
 C                 -1.65377400   -0.31379200   -0.04403100
 H                 -2.80213200   -0.85723700    0.00556200
 C                 -0.62193900    0.31797300   -0.03505300
 C                  0.65276300    1.04901900    0.02224000
 O                  0.68745800    2.19794200    0.34803200
 O                  1.75590800    0.38053100   -0.31775500
 C                  1.71381500   -1.02693900   -0.61527100
 C                  1.76748600   -1.85147000    0.65532400
 H                  0.82605600   -1.25182400   -1.20908300
 H                  2.59535800   -1.19135700   -1.23287400
 H                  2.65384700   -1.59291600    1.23619000
 H                  0.88132400   -1.68208800    1.26909800
 H                  1.81145000   -2.91328800    0.40499400
 O                 -3.95681800   -0.61955900   -0.08055900
 H                 -4.07238400    0.13247800    0.52364500

