%chk=ethyl_propiolate.chk 
%nprocshared=24 
%mem=12GB 
# ccsd(t)/6-311++g(d,p) sp 

Title Card Required

0 2
 C                 -1.64199300   -0.31072300   -0.04907600
 H                 -3.08823000   -1.04238800    0.11713500
 C                 -0.61480800    0.32641900   -0.03561000
 C                  0.65748200    1.04990900    0.02327100
 O                  0.68810500    2.19889800    0.34796700
 O                  1.75745700    0.38065300   -0.31783400
 C                  1.71393200   -1.02705900   -0.61527700
 C                  1.76746100   -1.85139100    0.65541300
 H                  0.82595800   -1.25102900   -1.20909300
 H                  2.59525200   -1.19171100   -1.23299300
 H                  2.65385700   -1.59301000    1.23624800
 H                  0.88143600   -1.68209200    1.26944900
 H                  1.81130400   -2.91316900    0.40502200
 O                 -3.96046900   -0.61688800   -0.08536400
 H                 -4.04713000    0.10911100    0.54456200

