%chk=ethyl_propiolate.chk 
%nprocshared=24 
%mem=12GB 
# ccsd(t)/6-311++g(d,p) sp 

Title Card Required

0 2
 C                 -1.65434900   -0.31399300   -0.04367900
 H                 -2.74979100   -0.84919900    0.00130400
 C                 -0.62253400    0.31712500   -0.03506800
 C                  0.65223400    1.04899800    0.02218000
 O                  0.68751700    2.19795400    0.34804900
 O                  1.75586700    0.38050100   -0.31775700
 C                  1.71381800   -1.02690600   -0.61526900
 C                  1.76748600   -1.85147800    0.65532400
 H                  0.82608900   -1.25188400   -1.20905200
 H                  2.59540100   -1.19140400   -1.23282900
 H                  2.65384300   -1.59290100    1.23619700
 H                  0.88131800   -1.68201900    1.26906400
 H                  1.81146500   -2.91331700    0.40502600
 O                 -3.95871000   -0.61937000   -0.08048100
 H                 -4.07476300    0.13427200    0.52303900

