%chk=ethyl_propiolate.chk 
%nprocshared=24 
%mem=12GB 
# ccsd(t)/6-311++g(d,p) sp 

Title Card Required

0 2
 C                 -1.64134800   -0.31048500   -0.04956300
 H                 -3.10195400   -1.06067600    0.12995700
 C                 -0.61434100    0.32684000   -0.03569700
 C                  0.65772800    1.05004900    0.02335900
 O                  0.68828900    2.19905700    0.34798000
 O                  1.75765600    0.38065800   -0.31783900
 C                  1.71396300   -1.02703500   -0.61527700
 C                  1.76746100   -1.85138400    0.65541700
 H                  0.82597400   -1.25093800   -1.20907100
 H                  2.59528200   -1.19179300   -1.23297400
 H                  2.65385900   -1.59301700    1.23625900
 H                  0.88144700   -1.68202900    1.26945300
 H                  1.81129700   -2.91317100    0.40503900
 O                 -3.96116900   -0.61641200   -0.08597000
 H                 -4.04526500    0.10699200    0.54710200

