%chk=ethyl_propiolate.chk 
%nprocshared=24 
%mem=12GB 
# ccsd(t)/6-311++g(d,p) sp 

Title Card Required

0 2
 C                 -1.64279700   -0.31101400   -0.04858300
 H                 -3.07045000   -1.02652300    0.10624400
 C                 -0.61532100    0.32591900   -0.03553400
 C                  0.65719200    1.04978900    0.02317600
 O                  0.68795500    2.19875800    0.34796100
 O                  1.75727400    0.38065100   -0.31782700
 C                  1.71391100   -1.02706900   -0.61528000
 C                  1.76746400   -1.85139500    0.65540300
 H                  0.82595400   -1.25110700   -1.20911300
 H                  2.59523800   -1.19163500   -1.23300700
 H                  2.65385800   -1.59300300    1.23623700
 H                  0.88142700   -1.68213700    1.26943300
 H                  1.81131500   -2.91316800    0.40500200
 O                 -3.95993300   -0.61719100   -0.08487400
 H                 -4.04889700    0.11127900    0.54228400

