%chk=ethyl_propiolate.chk 
%nprocshared=24 
%mem=12GB 
# ccsd(t)/6-311++g(d,p) sp 

Title Card Required

0 2
 C                 -1.64360100   -0.31125800   -0.04811200
 H                 -3.05484100   -1.00930100    0.09444900
 C                 -0.61584400    0.32538300   -0.03545600
 C                  0.65688600    1.04967200    0.02308200
 O                  0.68781700    2.19862200    0.34795700
 O                  1.75709200    0.38064700   -0.31781900
 C                  1.71388900   -1.02707700   -0.61528000
 C                  1.76746700   -1.85140200    0.65539400
 H                  0.82594800   -1.25118600   -1.20913000
 H                  2.59522300   -1.19156300   -1.23301800
 H                  2.65385800   -1.59299800    1.23622600
 H                  0.88141700   -1.68218100    1.26941500
 H                  1.81132600   -2.91316900    0.40498400
 O                 -3.95922300   -0.61757400   -0.08432000
 H                 -4.05088700    0.11336200    0.53993900

