%chk=ethyl_propiolate_planar.chk
%mem=12GB
%nprocshared=24
# CCSD(T)/6-311++G(d,p) SP

Title Card Required

0 1
 C                  2.947327   -0.925172    0.000001
 H                  3.872224   -1.452749    0.000001
 C                  1.906776   -0.331493    0.000001
 C                  0.671361    0.440377    0.000001
 O                  0.631467    1.639019    0.000001
 O                 -0.395434   -0.358958   -0.000000
 C                 -1.671157    0.310287   -0.000001
 C                 -2.735859   -0.761675   -0.000002
 H                 -1.726653    0.949764   -0.883197
 H                 -1.726654    0.949763    0.883197
 H                 -3.723797   -0.298285   -0.000002
 H                 -2.647034   -1.391463   -0.885894
 H                 -2.647035   -1.391464    0.885890

