%nprocshared=24
%mem=12GB
%chk=ethyl_propiolate.chk
# opt=(calcfc,tight,noeigentest) freq 6-311++G(d,p) m062x

Title Card Required

0 1
 C                 -2.964567   -0.941499    0.000004
 H                 -3.889004   -1.472701    0.000007
 C                 -1.919476   -0.335637    0.000002
 C                 -0.699661    0.435168   -0.000002
 O                 -0.645174    1.664073   -0.000009
 O                  0.401876   -0.357394    0.000002
 C                  1.707241    0.320233   -0.000001
 C                  2.753519   -0.771976    0.000004
 H                  1.758987    0.957614   -0.886710
 H                  1.758986    0.957623    0.886701
 H                  2.650634   -1.401925    0.886387
 H                  2.650635   -1.401934   -0.886371
 H                  3.753814   -0.329831    0.000002

 