%chk=ethyl_propiolate_planar.chk
%mem=12GB
%nprocshared=24
# opt=(calcfc,tight,noeigentest) freq 6-31+g m062x

Title Card Required

0 1
 C                 -2.07230140    1.23338175   -1.86752483
 H                 -2.65397380    1.33084690   -2.76030575
 C                 -1.41931013    1.12396457   -0.86527152
 C                 -0.58214146    0.98368625    0.41966841
 O                 -1.13896370    0.66241067    1.50147318
 O                  0.82798200    1.21851369    0.38350332
 C                  1.47105696    0.41213469    1.37401202
 C                  2.98965145    0.66502578    1.33506500
 H                  1.27627131   -0.62087948    1.17441173
 H                  1.09189725    0.66606432    2.34182277
 H                  3.47083342    0.06165128    2.07621487
 H                  3.36881117    0.41109616    0.36725424
 H                  3.18443711    1.69803995    1.53466528

