%nprocshared=4
%mem=150MW
%chk=ethyl_propiolate.chk
# ccsd(t)/6-311++g(d,p) sp

Title Card Required

0 1
 C                 -2.94783700   -0.92457900   -0.00000200
 H                 -3.87252100   -1.45227000   -0.00000700
 C                 -1.90695800   -0.33174400    0.00000400
 C                 -0.67132500    0.44020000    0.00000200
 O                 -0.63146900    1.63872900    0.00000200
 O                  0.39536000   -0.35925600    0.00000000
 C                  1.67120000    0.30993200   -0.00000600
 C                  2.73625900   -0.76111500    0.00000300
 H                  1.72586900    0.94971000   -0.88325400
 H                  1.72586900    0.94972600    0.88323100
 H                  2.64891400   -1.39121000    0.88597200
 H                  2.64890200   -1.39123500   -0.88594800
 H                  3.72380500   -0.29666500   -0.00001100

