%chk=ethyl_propiolate_planar.chk
%mem=12GB
%nprocshared=24
# opt=(calcfc,tight,noeigentest) freq 6-311++g** m062x

Title Card Required

0 1
 C                 -2.964570   -0.941496   -0.000003
 H                 -3.889009   -1.472693   -0.000011
 C                 -1.919477   -0.335637    0.000005
 C                 -0.699657    0.435166    0.000003
 O                 -0.645169    1.664072   -0.000002
 O                  0.401878   -0.357395    0.000002
 C                  1.707238    0.320232   -0.000002
 C                  2.753516   -0.771976   -0.000000
 H                  1.758978    0.957620    0.886703
 H                  1.758979    0.957615   -0.886711
 H                  3.753813   -0.329833   -0.000001
 H                  2.650631   -1.401929    0.886380
 H                  2.650630   -1.401932   -0.886378

