%nprocshared=4
%mem=150MW
%chk=ethyl_propiolate.chk
# opt=(calcfc,tight,noeigentest) freq 6-311++g(d,p) m062x

Title Card Required

0 1
 C                  0.93270914    1.83049133    1.02116152
 H                  1.12171577    2.83778445    1.32863032
 C                  0.72052831    0.69968571    0.67599580
 C                  0.44850035   -0.75006521    0.23347679
 O                  1.17641447   -1.68462846    0.65809796
 O                 -0.53409247   -1.00868134   -0.57954887
 C                 -0.78668862   -2.35487837   -0.99046096
 C                 -1.40028789   -2.35389000   -2.40293926
 H                  0.13225249   -2.90290428   -1.00117728
 H                 -1.46830328   -2.81483347   -0.30581305
 H                 -2.31922900   -1.80586409   -2.39222293
 H                 -0.71867322   -1.89393490   -3.08758717
 H                 -1.58929340   -3.36118428   -2.71040494

