%nprocshared=24
%mem=12GB
%chk=ethyl_propiolate.chk
# ccsd(t)/6-311++g(d,p) sp

Title Card Required

0 1
 C                 -2.947327   -0.925172    0.000004
 H                 -3.872224   -1.452749    0.000007
 C                 -1.906776   -0.331493    0.000001
 C                 -0.671361    0.440377   -0.000002
 O                 -0.631467    1.639019   -0.000008
 O                  0.395434   -0.358958    0.000002
 C                  1.671157    0.310287   -0.000001
 C                  2.735859   -0.761675    0.000005
 H                  1.726654    0.949759   -0.883202
 H                  1.726653    0.949768    0.883192
 H                  2.647034   -1.391459    0.885900
 H                  2.647035   -1.391468   -0.885884
 H                  3.723797   -0.298285    0.000002

 