%chk=ethyl_propiolate.chk 
%nprocshared=24 
%mem=12GB 
# ccsd(t)/6-311++g(d,p) sp 

Title Card Required

0 2
 C                  2.91429800    1.31139900    0.31914500
 H                  3.67716900    2.03862300    0.47353200
 C                  2.05791600    0.49205500    0.14459000
 C                  1.05122600   -0.53054100   -0.09342100
 O                  1.27932200   -1.61093100   -0.55549600
 O                 -0.16399000   -0.10088800    0.27148300
 C                 -1.24412400   -1.02656700    0.04764400
 C                 -2.48478900   -0.39883700    0.59800900
 H                 -1.31916600   -1.22547500   -1.02349500
 H                 -1.01063400   -1.96974800    0.55555600
 H                 -2.42967800   -0.12486900    1.64900300
 H                 -2.56914700    0.89341400   -0.08375200
 H                 -3.40088500   -0.91672200    0.32643100
 O                 -2.30604600    1.79236600   -0.57631400
 H                 -1.37064300    1.84241500   -0.34035800

