%chk=ethyl_propiolate.chk 
%nprocshared=24 
%mem=12GB 
# ccsd(t)/6-311++g(d,p) sp 

Title Card Required

0 2
 C                  3.27807000   -0.52374800   -0.44103200
 H                  4.27163700   -0.79048900   -0.71716900
 C                  2.16040800   -0.22524100   -0.13047800
 C                  0.82594000    0.18804600    0.26091600
 O                  0.56618600    1.24103700    0.77146400
 O                 -0.08144100   -0.75924800   -0.02010600
 C                 -1.41205000   -0.49367400    0.35870800
 C                 -2.29529100   -1.61558700   -0.09197700
 H                 -1.47680000   -0.20537000    1.40865000
 H                 -1.80209200    0.76646800   -0.30687400
 H                 -2.21425600   -1.76439900   -1.16926500
 H                 -1.99472500   -2.54136800    0.41119400
 H                 -3.33351600   -1.40115800    0.16093200
 O                 -1.91420400    1.75724000   -0.69271300
 H                 -1.21041800    2.19551500   -0.19611600

