%chk=ethyl_propiolate.chk 
%nprocshared=24 
%mem=12GB 
# ccsd(t)/6-311++g(d,p) sp 

Title Card Required

0 2
 C                  2.91430300    1.31140800    0.31914600
 H                  3.67718200    2.03861700    0.47354200
 C                  2.05792400    0.49205900    0.14458800
 C                  1.05118900   -0.53054100   -0.09341600
 O                  1.27934200   -1.61092300   -0.55549700
 O                 -0.16399700   -0.10087600    0.27145100
 C                 -1.24407400   -1.02687100    0.04776100
 C                 -2.48502200   -0.39698900    0.59714800
 H                 -1.31912000   -1.22536100   -1.02341600
 H                 -1.01036100   -1.96977600    0.55552400
 H                 -2.42941300   -0.12861400    1.64983200
 H                 -2.57169000    0.87022000   -0.07115800
 H                 -3.39971900   -0.91956700    0.32841000
 O                 -2.30589300    1.79315400   -0.57676700
 H                 -1.37005700    1.84074600   -0.33929200

