%chk=ethyl_propiolate.chk 
%nprocshared=24 
%mem=12GB 
# ccsd(t)/6-311++g(d,p) sp 

Title Card Required

0 2
 C                  3.27829700   -0.52369200   -0.44106000
 H                  4.27157000   -0.79088100   -0.71719500
 C                  2.16091900   -0.22465700   -0.13032900
 C                  0.82262400    0.18451400    0.25959900
 O                  0.56508800    1.24198600    0.77042300
 O                 -0.07387100   -0.76202200   -0.01911200
 C                 -1.42047300   -0.48568600    0.35836000
 C                 -2.29400900   -1.62444000   -0.08889400
 H                 -1.46712300   -0.26672700    1.42717400
 H                 -1.75660600    0.46021700   -0.18158600
 H                 -2.21460800   -1.76290600   -1.16756500
 H                 -2.00181400   -2.55197900    0.40795300
 H                 -3.33255800   -1.40395400    0.16075800
 O                 -1.91731200    1.78605200   -0.70325300
 H                 -1.19668100    2.19201500   -0.18853400

