%chk=ethyl_propiolate.chk 
%nprocshared=24 
%mem=12GB 
# ccsd(t)/6-311++g(d,p) sp 

Title Card Required

0 2
 C                  2.91431400    1.31142500    0.31914700
 H                  3.67720600    2.03860500    0.47355900
 C                  2.05794000    0.49206800    0.14458600
 C                  1.05111900   -0.53054400   -0.09340500
 O                  1.27937800   -1.61090700   -0.55549900
 O                 -0.16400300   -0.10084200    0.27139000
 C                 -1.24399900   -1.02743800    0.04798000
 C                 -2.48547500   -0.39400600    0.59578200
 H                 -1.31904700   -1.22512200   -1.02328100
 H                 -1.00974300   -1.96976800    0.55534000
 H                 -2.42896100   -0.13536700    1.65127500
 H                 -2.57867600    0.82352900   -0.04579000
 H                 -3.39755000   -0.92490900    0.33213300
 O                 -2.30545500    1.79513400   -0.57788300
 H                 -1.36882300    1.83803700   -0.33752500

