%chk=ethyl_propiolate.chk 
%nprocshared=24 
%mem=12GB 
# ccsd(t)/6-311++g(d,p) sp 

Title Card Required

0 2
 C                  3.27832800   -0.52367000   -0.44108200
 H                  4.27156500   -0.79095500   -0.71722000
 C                  2.16099600   -0.22449900   -0.13029200
 C                  0.82227400    0.18416000    0.25944200
 O                  0.56476100    1.24205100    0.77006200
 O                 -0.07292900   -0.76274600   -0.01892000
 C                 -1.42077200   -0.48832800    0.36012800
 C                 -2.29377100   -1.62688000   -0.08824600
 H                 -1.46587000   -0.27440200    1.42996100
 H                 -1.75844700    0.44987500   -0.17718900
 H                 -2.21456600   -1.76338400   -1.16721300
 H                 -2.00338200   -2.55565900    0.40702800
 H                 -3.33225600   -1.40533900    0.16107800
 O                 -1.91768000    1.79192900   -0.70514800
 H                 -1.19505200    2.19318800   -0.18904300

