%chk=ethyl_propiolate.chk 
%nprocshared=24 
%mem=12GB 
# ccsd(t)/6-311++g(d,p) sp 

Title Card Required

0 2
 C                  2.91435100    1.31150000    0.31915400
 H                  3.67721300    2.03865800    0.47361200
 C                  2.05800700    0.49210300    0.14458400
 C                  1.05086300   -0.53054600   -0.09335900
 O                  1.27950900   -1.61084900   -0.55549800
 O                 -0.16397100   -0.10062800    0.27116200
 C                 -1.24392000   -1.02924700    0.04868100
 C                 -2.48718600   -0.38853000    0.59353400
 H                 -1.31864400   -1.22441700   -1.02296500
 H                 -1.00712700   -1.96963600    0.55430500
 H                 -2.42742300   -0.15655400    1.65589400
 H                 -2.61045400    0.68584600    0.02869500
 H                 -3.39010100   -0.94469800    0.34548900
 O                 -2.30329700    1.80358400   -0.58254000
 H                 -1.36467600    1.83214100   -0.33385700

