%chk=ethyl_propiolate.chk 
%nprocshared=24 
%mem=12GB 
# ccsd(t)/6-311++g(d,p) sp 

Title Card Required

0 2
 C                  3.27817000   -0.52372800   -0.44103100
 H                  4.27161200   -0.79064300   -0.71711100
 C                  2.16065400   -0.22501000   -0.13045100
 C                  0.82425200    0.18625100    0.26027900
 O                  0.56577300    1.24149400    0.77110600
 O                 -0.07767600   -0.76044800   -0.01958200
 C                 -1.41778500   -0.48316800    0.35532700
 C                 -2.29476100   -1.61897200   -0.09069700
 H                 -1.47157400   -0.23896800    1.41826100
 H                 -1.76127400    0.54946000   -0.21362500
 H                 -2.21447000   -1.76312600   -1.16842100
 H                 -1.99698800   -2.54392100    0.41040400
 H                 -3.33318300   -1.40189300    0.16055800
 O                 -1.91592500    1.77001900   -0.69772000
 H                 -1.20217200    2.19051200   -0.18950700

