%chk=ethyl_propiolate.chk 
%nprocshared=24 
%mem=12GB 
# ccsd(t)/6-311++g(d,p) sp 

Title Card Required

0 2
 C                  2.91433100    1.31145300    0.31914900
 H                  3.67723800    2.03859000    0.47358600
 C                  2.05796800    0.49208200    0.14458300
 C                  1.05100500   -0.53054800   -0.09338700
 O                  1.27943500   -1.61088300   -0.55550200
 O                 -0.16399800   -0.10076300    0.27129300
 C                 -1.24393000   -1.02828800    0.04830600
 C                 -2.48622800   -0.39063600    0.59430900
 H                 -1.31891700   -1.22474900   -1.02311200
 H                 -1.00864700   -1.96969600    0.55489800
 H                 -2.42829600   -0.14529800    1.65335200
 H                 -2.59232200    0.75381100   -0.00793900
 H                 -3.39417200   -0.93347600    0.33804000
 O                 -2.30455200    1.79884100   -0.57994000
 H                 -1.36683700    1.83483900   -0.33542000

