%chk=ethyl_propiolate.chk 
%nprocshared=24 
%mem=12GB 
# ccsd(t)/6-311++g(d,p) sp 

Title Card Required

0 2
 C                  2.91457300    1.31165200    0.31916900
 H                  3.67794700    2.03814800    0.47385000
 C                  2.05825700    0.49218500    0.14455400
 C                  1.05015400   -0.53025300   -0.09335400
 O                  1.27986600   -1.61051900   -0.55543300
 O                 -0.16421700   -0.09930400    0.27002600
 C                 -1.24442200   -1.03243500    0.04955700
 C                 -2.49506000   -0.40558600    0.60415100
 H                 -1.31843900   -1.22253100   -1.02309000
 H                 -0.99777400   -1.97105200    0.54960300
 H                 -2.41825400   -0.20956500    1.67345900
 H                 -2.71537500    0.55578000    0.10148600
 H                 -3.36474400   -1.03131100    0.39862000
 O                 -2.29362100    1.83448800   -0.59908000
 H                 -1.35776000    1.81739900   -0.32869300

