%chk=ethyl_propiolate.chk 
%nprocshared=24 
%mem=12GB 
# ccsd(t)/6-311++g(d,p) sp 

Title Card Required

0 2
 C                  3.27822750   -0.52371202   -0.44102710
 H                  4.27164450   -0.79069802   -0.71696510
 C                  2.16077250   -0.22486902   -0.13039510
 C                  0.82346050    0.18539498    0.25995290
 O                  0.56550050    1.24174898    0.77085490
 O                 -0.07589450   -0.76106702   -0.01938210
 C                 -1.41923350   -0.48340502    0.35627090
 C                 -2.29442050   -1.62114902   -0.08994210
 H                 -1.46951450   -0.25205902    1.42229890
 H                 -1.75722350    0.50010298   -0.19570710
 H                 -2.21450450   -1.76285602   -1.16809310
 H                 -1.99908550   -2.54707102    0.40931890
 H                 -3.33296450   -1.40261302    0.16046290
 O                 -1.91657050    1.77684598   -0.70012610
 H                 -1.19959250    2.19091198   -0.18874510

