%chk=ethyl_propiolate.chk
%nprocshared=24
%mem=12GB
# ccsd(t)/6-311++g(d,p) sp

Title Card Required

0 2
 O                  2.71560600   -1.41698400    0.03745900
 H                  1.80462900   -1.69104500   -0.15602800
 C                  2.48177700    0.49967200    0.25628400
 H                  3.51775900    0.69081200    0.44065700
 C                  1.29274700    0.75691100    0.10822900
 C                 -0.14557400    0.74665000   -0.10942900
 O                 -0.84358200    1.71976000   -0.07781300
 O                 -0.56174400   -0.50072000   -0.35265500
 C                 -1.98124700   -0.66689000   -0.57178400
 C                 -2.73473000   -0.68874300    0.74287700
 H                 -2.05671600   -1.61662300   -1.09796900
 H                 -2.32759100    0.13801600   -1.22070400
 H                 -3.79110400   -0.88816200    0.55321800
 H                 -2.34624900   -1.47439400    1.39246300
 H                 -2.65276200    0.27205200    1.25128600

