%chk=ethyl_propiolate.chk
%nprocshared=24
%mem=12GB
# freq 6-311++g(d,p) m062x

Title Card Required

0 2
 O                  2.72862500   -1.57510700    0.01847200
 H                  1.78878600   -1.74547200   -0.16783700
 C                  2.47703800    0.71272100    0.28396900
 H                  3.52967500    0.71452300    0.44481900
 C                  1.28996500    0.76091700    0.10850500
 C                 -0.14667400    0.74772200   -0.10953400
 O                 -0.84839200    1.71768800   -0.07880900
 O                 -0.56264300   -0.50189800   -0.35311600
 C                 -1.98130900   -0.66714300   -0.57180100
 C                 -2.73519300   -0.68890000    0.74288700
 H                 -2.05889500   -1.61655500   -1.09852800
 H                 -2.32783500    0.13826800   -1.22003200
 H                 -3.79181900   -0.88739700    0.55357600
 H                 -2.34723100   -1.47491800    1.39244000
 H                 -2.65197800    0.27170300    1.25140400

