%chk=ethyl_propiolate.chk
%nprocshared=24
%mem=12GB
# ccsd(t)/6-311++g(d,p) sp

Title Card Required

0 2
 O                  2.71993200   -1.47052200    0.03101600
 H                  1.79946700   -1.71686200   -0.16090500
 C                  2.47828600    0.58110500    0.26664700
 H                  3.52714600    0.66581000    0.43864600
 C                  1.29209600    0.75139600    0.10738700
 C                 -0.14543800    0.74725200   -0.10935100
 O                 -0.84427000    1.71938300   -0.07797900
 O                 -0.56249200   -0.50113900   -0.35285800
 C                 -1.98118500   -0.66676800   -0.57176600
 C                 -2.73487800   -0.68874400    0.74288400
 H                 -2.05773900   -1.61637100   -1.09821900
 H                 -2.32785800    0.13830000   -1.22037900
 H                 -3.79133300   -0.88803000    0.55349000
 H                 -2.34636500   -1.47441300    1.39249200
 H                 -2.65250200    0.27200200    1.25130500

