%nprocshared=24
%mem=12GB
%chk=ethyl_propiolate_ts1.chk
# ccsd(t)/6-311++g(d,p) sp

Title Card Required

0 2
O        2.79578400     -1.53151700      0.02453200
H        1.85630400     -1.70578600     -0.15996800
C        2.53929700      0.75834700      0.26676200
H        3.59193500      0.76404600      0.42751100
C        1.35211500      0.80220700      0.09090000
C       -0.08450300      0.78371000     -0.12689200
O       -0.78830200      1.75242900     -0.10598500
O       -0.49779900     -0.46921400     -0.35772100
C       -1.91611800     -0.63972000     -0.57461300
C       -2.66988900     -0.64972200      0.74028100
H       -1.99169000     -1.59460600     -1.09165000
H       -2.26440500      0.15830900     -1.23097900
H       -3.72609600     -0.85240300      0.55307400
H       -2.28020800     -1.42825700      1.39776900
H       -2.58871300      0.31618000      1.23899500

