%nprocshared=24
%mem=12GB
%chk=ethyl_propiolate_ts1.chk
# ccsd(t)/6-311++g(d,p) sp

Title Card Required

0 2
O        2.77406800     -1.33435900      0.02621000
H        1.87087300     -1.62536100     -0.16981600
C        2.55165000      0.44819000      0.23907000
H        3.56287900      0.75355700      0.43703800
C        1.35754800      0.80297300      0.10488700
C       -0.08001300      0.78312200     -0.11439700
O       -0.77685600      1.75794000     -0.07698700
O       -0.49831000     -0.46137600     -0.36481200
C       -1.91839800     -0.62419700     -0.58491000
C       -2.67169600     -0.65239800      0.72968300
H       -1.99515200     -1.57077500     -1.11650700
H       -2.26324000      0.18505000     -1.22916600
H       -3.72836700     -0.84914500      0.53888300
H       -2.28441800     -1.44243500      1.37464900
H       -2.58833700      0.30533200      1.24362800

