%chk=ethyl_propiolate.chk
%nprocshared=24
%mem=12GB
# freq 6-311++g(d,p) m062x

Title Card Required

0 2
 O                  2.71657800   -1.42996900    0.03588500
 H                  1.80347300   -1.69840300   -0.15710900
 C                  2.48069500    0.52025300    0.25885500
 H                  3.52072100    0.68275600    0.43994200
 C                  1.29270400    0.75488800    0.10795100
 C                 -0.14552400    0.74682600   -0.10940700
 O                 -0.84368700    1.71969900   -0.07784600
 O                 -0.56191100   -0.50079500   -0.35269600
 C                 -1.98120900   -0.66687000   -0.57177000
 C                 -2.73475900   -0.68872200    0.74288100
 H                 -2.05689100   -1.61663100   -1.09793100
 H                 -2.32766700    0.13799400   -1.22069000
 H                 -3.79114500   -0.88815800    0.55330200
 H                 -2.34624000   -1.47430800    1.39254100
 H                 -2.65273300    0.27209800    1.25123300

