%nprocshared=24
%mem=12GB
%chk=ethyl_propiolate_ts1.chk
# freq 6-311++g(d,p) m062x

Title Card Required

0 2
O        2.79434300     -1.51644700      0.02448100
H        1.85732200     -1.70187200     -0.16103300
C        2.53968500      0.73994800      0.26554000
H        3.59227500      0.74807100      0.42672300
C        1.35243800      0.79901200      0.09151000
C       -0.08411900      0.78378500     -0.12593300
O       -0.78696400      1.75315600     -0.10369600
O       -0.49820400     -0.46855900     -0.35831300
C       -1.91641900     -0.63839000     -0.57541200
C       -2.67005500     -0.64989400      0.73951900
H       -1.99223600     -1.59261100     -1.09364300
H       -2.26456700      0.16054000     -1.23077100
H       -3.72629800     -0.85226100      0.55219900
H       -2.28034800     -1.42924000      1.39602900
H       -2.58872900      0.31540700      1.23937900

