%nprocshared=24
%mem=12GB
%chk=ethyl_propiolate_ts1.chk
# ccsd(t)/6-311++g(d,p) sp

Title Card Required

0 2
O        2.77745900     -1.36953400      0.02537700
H        1.86824600     -1.64712100     -0.16915000
C        2.54733100      0.51326100      0.24574000
H        3.57829700      0.73275600      0.43396000
C        1.35705500      0.79516400      0.10142800
C       -0.08113300      0.78387500     -0.11656500
O       -0.77830000      1.75768400     -0.08197200
O       -0.49818200     -0.46218400     -0.36345700
C       -1.91797300     -0.62665200     -0.58307900
C       -2.67137800     -0.65180400      0.73154400
H       -1.99405300     -1.57476600     -1.11205300
H       -2.26360300      0.18045800     -1.22961700
H       -3.72790500     -0.84982800      0.54128800
H       -2.28351400     -1.43970600      1.37876000
H       -2.58869100      0.30741100      1.24281900

