%nprocshared=24
%mem=12GB
%chk=ethyl_propiolate_ts1.chk
# ccsd(t)/6-311++g(d,p) sp

Title Card Required

0 2
O        2.77057800     -1.29836700      0.02747200
H        1.87443200     -1.60607900     -0.17030600
C        2.55432700      0.38381500      0.23198000
H        3.54227900      0.76490400      0.43806400
C        1.35992100      0.81174000      0.10886500
C       -0.07801500      0.78256900     -0.11209800
O       -0.77559700      1.75788700     -0.07215200
O       -0.49857100     -0.46090600     -0.36625500
C       -1.91864800     -0.62179400     -0.58677600
C       -2.67201600     -0.65301500      0.72772400
H       -1.99657400     -1.56684200     -1.12102900
H       -2.26282500      0.18959800     -1.22867900
H       -3.72885700     -0.84854200      0.53649500
H       -2.28529200     -1.44511000      1.37054800
H       -2.58784800      0.30326400      1.24422000

