%chk=ethyl_propiolate.chk
%nprocshared=24
%mem=12GB
# irc=(calcfc,maxpoints=10,maxcycle=900,stepsize=5) 6-311++g(d,p) m062x

Title Card Required

0 2
 O                  2.72756100   -1.55949600    0.02038000
 H                  1.79019600   -1.74144100   -0.16683600
 C                  2.47723800    0.69513200    0.28166800
 H                  3.52983200    0.69977800    0.44296700
 C                  1.29011900    0.75804500    0.10811900
 C                 -0.14645100    0.74754100   -0.10952100
 O                 -0.84742700    1.71802700   -0.07861800
 O                 -0.56293500   -0.50186600   -0.35315100
 C                 -1.98146000   -0.66700700   -0.57183300
 C                 -2.73520200   -0.68885800    0.74290600
 H                 -2.05908300   -1.61639000   -1.09861100
 H                 -2.32802500    0.13844300   -1.22001100
 H                 -3.79182200   -0.88749800    0.55372700
 H                 -2.34704100   -1.47481500    1.39241400
 H                 -2.65204800    0.27175900    1.25141400

