%nprocshared=24
%mem=12GB
%chk=ethyl_propiolate_ts1.chk
# ccsd(t)/6-311++g(d,p) sp

Title Card Required

0 2
O        2.78449400     -1.43137300      0.02464000
H        1.86416500     -1.67861700     -0.16676900
C        2.54172500      0.62061000      0.25597500
H        3.59053800      0.70624800      0.42780100
C        1.35544300      0.78992000      0.09635300
C       -0.08208700      0.78453600     -0.12038200
O       -0.78145000      1.75634900     -0.09104800
O       -0.49845700     -0.46458900     -0.36127700
C       -1.91705800     -0.63145100     -0.57984400
C       -2.67074700     -0.65108700      0.73484500
H       -1.99309000     -1.58219600     -1.10430900
H       -2.26416700      0.17206700     -1.23014300
H       -3.72709200     -0.85134700      0.54586400
H       -2.28180800     -1.43518200      1.38609900
H       -2.58889800      0.31076600      1.24125400

