%nprocshared=24
%mem=12GB
%chk=ethyl_propiolate_ts1.chk
# freq 6-311++g(d,p) m062x

Title Card Required

0 2
O        2.78785400     -1.45851700      0.02449000
H        1.86177700     -1.68672600     -0.16505700
C        2.54079800      0.66191000      0.25959200
H        3.59196300      0.70972900      0.42636300
C        1.35424000      0.79107400      0.09451600
C       -0.08264300      0.78439500     -0.12212200
O       -0.78299100      1.75548600     -0.09504000
O       -0.49859500     -0.46585900     -0.36036200
C       -1.91683700     -0.63362200     -0.57843600
C       -2.67050400     -0.65075600      0.73634100
H       -1.99295500     -1.58546400     -1.10095900
H       -2.26439100      0.16844600     -1.23029700
H       -3.72681000     -0.85180400      0.54797300
H       -2.28119400     -1.43327800      1.38928600
H       -2.58885800      0.31221500      1.24064900

