%nprocshared=24
%mem=12GB
%chk=ethyl_propiolate_ts1.chk
# ccsd(t)/6-311++g(d,p) sp

Title Card Required

0 2
O        2.77630200     -1.35781700      0.02561000
H        1.86902000     -1.63969900     -0.16940800
C        2.54885700      0.49153300      0.24356200
H        3.57386300      0.74029400      0.43519000
C        1.35710000      0.79752700      0.10252400
C       -0.08084000      0.78362400     -0.11584800
O       -0.77779000      1.75780900     -0.08028500
O       -0.49820100     -0.46186800     -0.36390000
C       -1.91813600     -0.62581200     -0.58368900
C       -2.67148700     -0.65199100      0.73092800
H       -1.99438000     -1.57341000     -1.11354000
H       -2.26348500      0.18201400     -1.22947100
H       -3.72805900     -0.84957900      0.54047500
H       -2.28382600     -1.44061800      1.37737900
H       -2.58858800      0.30672200      1.24311300

