%nprocshared=24
%mem=12GB
%chk=ethyl_propiolate_ts1.chk
# freq 6-311++g(d,p) m062x

Title Card Required

0 2
O        2.79709000     -1.54673000      0.02458600
H        1.85524500     -1.70957100     -0.15887800
C        2.53881300      0.77633700      0.26790100
H        3.59162000      0.78176500      0.42851900
C        1.35177000      0.80587600      0.09033600
C       -0.08490500      0.78373800     -0.12782900
O       -0.78986700      1.75165300     -0.10830800
O       -0.49719800     -0.46983300     -0.35706500
C       -1.91562500     -0.64115300     -0.57379900
C       -2.66965300     -0.64962600      0.74099700
H       -1.99083100     -1.59674600     -1.08957400
H       -2.26407300      0.15589400     -1.23125200
H       -3.72579400     -0.85265400      0.55378500
H       -2.28005600     -1.42732600      1.39952100
H       -2.58871100      0.31689100      1.23854500

