%chk=ethyl_propiolate.chk
%nprocshared=24
%mem=12GB
# freq 6-311++g(d,p) m062x

Title Card Required

0 2
 O                  2.72952400   -1.59089300    0.01651400
 H                  1.78730600   -1.74939200   -0.16883000
 C                  2.47676800    0.72986700    0.28620800
 H                  3.52957400    0.73095900    0.44692300
 C                  1.28981200    0.76425300    0.10894000
 C                 -0.14689700    0.74802200   -0.10952500
 O                 -0.84955100    1.71733100   -0.07903300
 O                 -0.56216100   -0.50187500   -0.35301300
 C                 -1.98097700   -0.66733800   -0.57174100
 C                 -2.73511500   -0.68895700    0.74284100
 H                 -2.05842500   -1.61682400   -1.09834800
 H                 -2.32747800    0.13796000   -1.22010700
 H                 -3.79172400   -0.88732500    0.55328800
 H                 -2.34742000   -1.47501900    1.39250000
 H                 -2.65190400    0.27164600    1.25134700

