%nprocshared=24
%mem=12GB
%chk=ethyl_propiolate_ts1.chk
# ccsd(t)/6-311++g(d,p) sp

Title Card Required

0 2
O        2.78954400     -1.47256400      0.02445300
H        1.86060500     -1.69049800     -0.16411100
C        2.54049600      0.68205900      0.26125200
H        3.59224300      0.71531700      0.42601900
C        1.35368900      0.79229300      0.09366100
C       -0.08298900      0.78425700     -0.12303900
O       -0.78384200      1.75499100     -0.09711900
O       -0.49861400     -0.46652200     -0.35988300
C       -1.91676000     -0.63475400     -0.57770700
C       -2.67039300     -0.65055600      0.73712400
H       -1.99287800     -1.58715900     -1.09921800
H       -2.26449100      0.16657300     -1.23038400
H       -3.72668400     -0.85196900      0.54905700
H       -2.28092800     -1.43228700      1.39092800
H       -2.58883200      0.31298700      1.24034800

