%chk=ethyl_propiolate.chk
%nprocshared=24
%mem=12GB
# ccsd(t)/6-311++g(d,p) sp

Title Card Required

0 2
 O                  2.72514300   -1.52885000    0.02407300
 H                  1.79309900   -1.73351400   -0.16487800
 C                  2.47744700    0.65862800    0.27687800
 H                  3.52962700    0.67768400    0.44020400
 C                  1.29057500    0.75371100    0.10751100
 C                 -0.14600000    0.74740700   -0.10943100
 O                 -0.84595900    1.71862000   -0.07832000
 O                 -0.56308800   -0.50168000   -0.35310600
 C                 -1.98144400   -0.66683300   -0.57183300
 C                 -2.73511700   -0.68880200    0.74290100
 H                 -2.05893200   -1.61624800   -1.09857900
 H                 -2.32810200    0.13855000   -1.22006800
 H                 -3.79168700   -0.88773200    0.55376400
 H                 -2.34672200   -1.47462900    1.39242400
 H                 -2.65220500    0.27186100    1.25137900

