%nprocshared=24
%mem=12GB
%chk=ethyl_propiolate_ts1.chk
# freq 6-31+g m062x

Title Card Required

0 2
O        2.71385100     -1.39173100      0.04053800
H        1.80686800     -1.67531700     -0.15340000
C        2.48448600      0.45822900      0.25118600
H        3.50922700      0.70880200      0.44186900
C        1.29241900      0.76243200      0.10889900
C       -0.14549700      0.74618200     -0.10946900
O       -0.84345400      1.71977900     -0.07777400
O       -0.56156100     -0.50070900     -0.35262200
C       -1.98131600     -0.66698600     -0.57181500
C       -2.73469300     -0.68875900      0.74286800
H       -2.05656000     -1.61674500     -1.09792700
H       -2.32747400      0.13792900     -1.22079100
H       -3.79105300     -0.88818800      0.55315700
H       -2.34624400     -1.47442900      1.39243800
H       -2.65280600      0.27205200      1.25127000

