%nprocshared=24
%mem=12GB
%chk=ethyl_propiolate_ts1.chk
# ccsd(t)/6-311++g(d,p) sp

Title Card Required

0 2
O        2.79280600     -1.50159500      0.02445300
H        1.85835500     -1.69803200     -0.16208100
C        2.53998300      0.72105300      0.26420300
H        3.59234600      0.73469900      0.42621700
C        1.35280900      0.79635800      0.09219700
C       -0.08374100      0.78389800     -0.12498600
O       -0.78578500      1.75382100     -0.10145400
O       -0.49845700     -0.46788700     -0.35886200
C       -1.91659600     -0.63713200     -0.57619300
C       -2.67018000     -0.65009700      0.73873100
H       -1.99255300     -1.59072000     -1.09556200
H       -2.26460000      0.16264300     -1.23060700
H       -3.72644900     -0.85213700      0.55120600
H       -2.28050900     -1.43024600      1.39430600
H       -2.58875300      0.31461000      1.23972500

