%nprocshared=24
%mem=12GB
%chk=ethyl_propiolate_ts1.chk
# ccsd(t)/6-311++g(d,p) sp

Title Card Required

0 2
O        2.78616600     -1.44480300      0.02455400
H        1.86296300     -1.68282200     -0.16594100
C        2.54121100      0.64139900      0.25782900
H        3.59134800      0.70696400      0.42697200
C        1.35483400      0.79029100      0.09541300
C       -0.08233800      0.78448800     -0.12123700
O       -0.78219500      1.75593600     -0.09302100
O       -0.49854200     -0.46521600     -0.36082600
C       -1.91693600     -0.63252000     -0.57914800
C       -2.67062400     -0.65092600      0.73558300
H       -1.99302500     -1.58381600     -1.10264200
H       -2.26428200      0.17027000     -1.23022400
H       -3.72694800     -0.85158600      0.54691100
H       -2.28149100     -1.43422900      1.38768500
H       -2.58888100      0.31148700      1.24094500

