%chk=ethyl_propiolate.chk
%nprocshared=24
%mem=12GB
# freq 6-311++g(d,p) m062x

Title Card Required

0 2
 O                  2.71299900   -1.37921200    0.04206900
 H                  1.80809000   -1.66761200   -0.15207800
 C                  2.48582800    0.43748200    0.24863100
 H                  3.50384300    0.71722100    0.44219800
 C                  1.29233000    0.76561500    0.10930200
 C                 -0.14534300    0.74592800   -0.10947500
 O                 -0.84342100    1.71973600   -0.07776900
 O                 -0.56152800   -0.50077200   -0.35262500
 C                 -1.98134000   -0.66704500   -0.57183100
 C                 -2.73468300   -0.68876600    0.74286300
 H                 -2.05658400   -1.61681100   -1.09791900
 H                 -2.32742300    0.13789000   -1.22081300
 H                 -3.79104300   -0.88819900    0.55315200
 H                 -2.34624600   -1.47444400    1.39243300
 H                 -2.65280100    0.27205500    1.25124800

