%nprocshared=24
%mem=12GB
%chk=ethyl_propiolate_ts1.chk
# freq 6-31+g m062x

Title Card Required

0 2
O        2.78144100     -1.40595200      0.02486300
H        1.86598100     -1.66744900     -0.16782400
C        2.54360100      0.57802200      0.25203600
H        3.58687600      0.71368700      0.43000000
C        1.35632600      0.79090500      0.09832400
C       -0.08170400      0.78438300     -0.11880100
O       -0.78007700      1.75700500     -0.08730500
O       -0.49831600     -0.46350100     -0.36216000
C       -1.91740600     -0.62944700     -0.58117600
C       -2.67101000     -0.65132400      0.73347200
H       -1.99336000     -1.57918000     -1.10739600
H       -2.26395200      0.17545100     -1.23002600
H       -3.72741600     -0.85073400      0.54396200
H       -2.28247800     -1.43690600      1.38314400
H       -2.58888700      0.30948900      1.24181900

