%chk=ethyl_propiolate.chk
%nprocshared=24
%mem=12GB
# irc=(calcfc,maxpoints=10,maxcycle=900,stepsize=5) 6-311++g(d,p) m062x

Title Card Required

0 2
 O                  2.71765734   -1.44335048    0.03427694
 H                  1.80219734   -1.70484748   -0.15841006
 C                  2.47981734    0.54062352    0.26144994
 H                  3.52309234    0.67628852    0.43941394
 C                  1.29254234    0.75350652    0.10773794
 C                 -0.14548766    0.74698452   -0.10938706
 O                 -0.84386066    1.71960652   -0.07789106
 O                 -0.56209966   -0.50089948   -0.35274606
 C                 -1.98118966   -0.66684548   -0.57176206
 C                 -2.73479366   -0.68872248    0.74288594
 H                 -2.05714366   -1.61657848   -1.09798206
 H                 -2.32773566    0.13805252   -1.22061206
 H                 -3.79119966   -0.88813248    0.55337594
 H                 -2.34626166   -1.47430448    1.39255794
 H                 -2.65267066    0.27209052    1.25123294

