%chk=ethyl_propiolate.chk
%nprocshared=24
%mem=12GB
# irc=(calcfc,maxpoints=10,maxcycle=900,stepsize=5) 6-311++g(d,p) m062x

Title Card Required

0 2
 O                  2.71124200   -1.35406200    0.04513600
 H                  1.81076600   -1.65302300   -0.14946100
 C                  2.48806800    0.39606800    0.24346000
 H                  3.49116500    0.73118800    0.44210300
 C                  1.29272600    0.77238500    0.11025900
 C                 -0.14476500    0.74544600   -0.10944400
 O                 -0.84340500    1.71953600   -0.07778100
 O                 -0.56154600   -0.50103700   -0.35266700
 C                 -1.98136700   -0.66717500   -0.57185900
 C                 -2.73467700   -0.68878000    0.74285100
 H                 -2.05680700   -1.61695700   -1.09792300
 H                 -2.32733400    0.13781800   -1.22082000
 H                 -3.79105500   -0.88822000    0.55319200
 H                 -2.34625900   -1.47446500    1.39244400
 H                 -2.65273500    0.27206900    1.25117100

