%nprocshared=24
%mem=12GB
%chk=ethyl_propiolate_ts1.chk
# ccsd(t)/6-311++g(d,p) sp

Title Card Required

0 2
O        2.77867400     -1.38134800      0.02518200
H        1.86754800     -1.65453300     -0.16884100
C        2.54586900      0.53498700      0.24788100
H        3.58195600      0.72520300      0.43262100
C        1.35697400      0.79315700      0.10036700
C       -0.08135600      0.78410100     -0.11728600
O       -0.77884600      1.75751600     -0.08369300
O       -0.49819400     -0.46255400     -0.36302200
C       -1.91778900     -0.62752600     -0.58246100
C       -2.67126100     -0.65163200      0.73216700
H       -1.99377200     -1.57615500     -1.11056100
H       -2.26371600      0.17887200     -1.22974900
H       -3.72774500     -0.85010600      0.54212400
H       -2.28318800     -1.43880000      1.38015800
H       -2.58877400      0.30809000      1.24251300

