%nprocshared=24
%mem=12GB
%chk=ethyl_propiolate_ts1.chk
# freq 6-311++g(d,p) m062x

Title Card Required

0 2
O        2.77178700     -1.31051400      0.02700300
H        1.87313200     -1.61215600     -0.17015300
C        2.55368500      0.40515900      0.23439000
H        3.54956300      0.76250400      0.43795100
C        1.35886900      0.80882700      0.10748700
C       -0.07879600      0.78271500     -0.11288600
O       -0.77600700      1.75793500     -0.07375400
O       -0.49847700     -0.46103400     -0.36576400
C       -1.91858300     -0.62260400     -0.58614700
C       -2.67190500     -0.65281700      0.72839200
H       -1.99606600     -1.56816500     -1.11950800
H       -2.26297000      0.18806900     -1.22884600
H       -3.72868700     -0.84875000      0.53729600
H       -2.28499700     -1.44423000      1.37192200
H       -2.58802600      0.30394500      1.24404700

