%nprocshared=24
%mem=12GB
%chk=ethyl_propiolate_ts1.chk
# freq 6-31+g m062x

Title Card Required

0 2
O        3.21888800      0.68125000      0.13243200
H        2.50225500      1.30193700     -0.06621500
C        2.42091300     -0.78646200      0.26513500
H        3.17497900     -1.52693100      0.48675200
C        1.14825500     -0.76808300      0.09133100
C       -0.07961600     -0.03596100     -0.19276100
O       -0.10886600      1.15174400     -0.38999700
O       -1.13217800     -0.84773100     -0.20792100
C       -2.41349300     -0.23292400     -0.46494400
C       -2.95895700      0.42801100      0.78517700
H       -3.04090000     -1.06001200     -0.79159200
H       -2.29867700      0.48233300     -1.28011400
H       -3.95879500      0.81747000      0.58445100
H       -3.02699200     -0.29483600      1.59941900
H       -2.32255800      1.25792000      1.09274800

