%nprocshared=24
%mem=12GB
%chk=ethyl_propiolate_ts1.chk
# freq 6-31+g m062x

Title Card Required

0 2
O        3.23544200      0.71600600      0.12897600
H        2.50475500      1.32152400     -0.06910800
C        2.39707500     -0.84373100      0.27127800
H        3.19960400     -1.52624600      0.48987100
C        1.15051300     -0.75709800      0.08985700
C       -0.08189600     -0.03594300     -0.19305000
O       -0.10930600      1.15098800     -0.38993500
O       -1.13201700     -0.84820900     -0.20781200
C       -2.41369400     -0.23296300     -0.46495400
C       -2.95889300      0.42798100      0.78518400
H       -3.04076700     -1.06021600     -0.79156800
H       -2.29832600      0.48205300     -1.28017700
H       -3.95868500      0.81736200      0.58423700
H       -3.02708100     -0.29482500      1.59942300
H       -2.32266900      1.25799900      1.09279400
