%nprocshared=24
%mem=12GB
%chk=ethyl_propiolate_ts1.chk
# freq 6-311++g(d,p) m062x

Title Card Required

0 2
O        3.30510500      0.72297600      0.10730200
H        2.57180700      1.32331600     -0.09680300
C        2.47337800     -0.83872700      0.26605900
H        3.27884900     -1.51554400      0.49144500
C        1.22640700     -0.75924500      0.08417300
C       -0.00912200     -0.04627300     -0.20577800
O       -0.04160500      1.13842600     -0.41495400
O       -1.05580600     -0.86307500     -0.21175800
C       -2.34014700     -0.25594600     -0.47483000
C       -2.88776300      0.41562200      0.76857100
H       -2.96381600     -1.08918300     -0.79263300
H       -2.22804300      0.45105600     -1.29746400
H       -3.88925100      0.79867300      0.56393700
H       -2.95265500     -0.29898100      1.59028600
H       -2.25496100      1.25146500      1.06733900

