%nprocshared=24
%mem=12GB
%chk=ethyl_propiolate_ts1.chk
# freq 6-311++g(d,p) m062x

Title Card Required

0 2
O        3.37788000      0.83747600      0.10903600
H        2.59478500      1.38351400     -0.08216400
C        2.36512400     -1.08921100      0.27348700
H        3.32186000     -1.51510100      0.46735000
C        1.22866100     -0.74789800      0.06870500
C       -0.01137400     -0.04300000     -0.20675800
O       -0.03574200      1.14594500     -0.39452300
O       -1.06274700     -0.85156700     -0.22794500
C       -2.34180600     -0.22990000     -0.48049500
C       -2.88552700      0.42301600      0.77462100
H       -2.97174000     -1.05233400     -0.81379100
H       -2.22394900      0.49140900     -1.28977900
H       -3.88391500      0.81746800      0.57647900
H       -2.95632400     -0.30601600      1.58306300
H       -2.24631900      1.24819200      1.08893900

