%nprocshared=24
%mem=12GB
%chk=ethyl_propiolate_ts1.chk
# freq 6-31+g m062x

Title Card Required

0 2
O        3.26711800      0.78437600      0.12205800
H        2.51424700      1.36659800     -0.07546500
C        2.34455800     -0.95777500      0.28280200
H        3.24463200     -1.49373600      0.49092400
C        1.15883300     -0.73892000      0.08808200
C       -0.08356900     -0.03638400     -0.19318200
O       -0.11039300      1.15048700     -0.39001300
O       -1.13181000     -0.84858700     -0.20769900
C       -2.41353000     -0.23305900     -0.46491100
C       -2.95885900      0.42796100      0.78515000
H       -3.04049500     -1.06040700     -0.79141900
H       -2.29801700      0.48188200     -1.28012600
H       -3.95865900      0.81724100      0.58402900
H       -3.02703800     -0.29477300      1.59943500
H       -2.32266900      1.25801100      1.09269600
