%nprocshared=24
%mem=12GB
%chk=ethyl_propiolate_ts1.chk
# freq 6-311++g(d,p) m062x

Title Card Required

0 2
O        3.36420900      0.81675000      0.10839400
H        2.59248800      1.37718800     -0.08530900
C        2.38180700     -1.04826300      0.27301800
H        3.32593300     -1.50099800      0.47108300
C        1.23054700     -0.74584900      0.07110600
C       -0.01139000     -0.04410400     -0.20655400
O       -0.03699900      1.14408000     -0.39811700
O       -1.06151300     -0.85415900     -0.22499700
C       -2.34159100     -0.23496600     -0.47948800
C       -2.88604900      0.42134300      0.77352000
H       -2.97039000     -1.05937900     -0.80999200
H       -2.22471200      0.48376000     -1.29119800
H       -3.88501900      0.81368200      0.57413400
H       -2.95577100     -0.30509000      1.58438900
H       -2.24804300      1.24850600      1.08504200

