%chk=ethyl_propiolate.chk
%nprocshared=24
%mem=12GB
# irc=(calcfc,maxpoints=10,maxcycle=900,stepsize=5) 6-311++g(d,p) m062x

Title Card Required

0 2
 O                  3.33334000    0.92863500    0.10746900
 H                  2.51803200    1.42575300   -0.08590400
 C                  2.26168100   -1.15513100    0.30378400
 H                  3.22978000   -1.55391400    0.49833500
 C                  1.15510700   -0.74178600    0.08816400
 C                 -0.08274300   -0.03501300   -0.19332200
 O                 -0.11089900    1.15245100   -0.39043700
 O                 -1.13225600   -0.84656700   -0.20819200
 C                 -2.41342700   -0.23204500   -0.46512000
 C                 -2.95922300    0.42803000    0.78530600
 H                 -3.04019600   -1.05947800   -0.79201200
 H                 -2.29877200    0.48366400   -1.27984900
 H                 -3.95919900    0.81723200    0.58480900
 H                 -3.02675000   -0.29526000    1.59916700
 H                 -2.32295000    1.25790600    1.09317200

