%nprocshared=24
%mem=12GB
%chk=ethyl_propiolate_ts1.chk
# freq 6-311++g(d,p) m062x

Title Card Required

0 2
O        3.38483500      0.84814800      0.10940200
H        2.59594300      1.38652500     -0.08056600
C        2.35695700     -1.10927100      0.27356300
H        3.31783800     -1.52613100      0.46576600
C        1.22750600     -0.74961100      0.06755700
C       -0.01133500     -0.04239900     -0.20686300
O       -0.03496200      1.14691000     -0.39267400
O       -1.06337800     -0.85014300     -0.22946400
C       -2.34193300     -0.22723300     -0.48102200
C       -2.88525400      0.42392500      0.77518100
H       -2.97241900     -1.04867000     -0.81573700
H       -2.22357900      0.49538500     -1.28907000
H       -3.88334800      0.81945300      0.57769200
H       -2.95659200     -0.30643700      1.58237400
H       -2.24544100      1.24808700      1.09092800

