%nprocshared=24
%mem=12GB
%chk=ethyl_propiolate_ts1.chk
# freq 6-311++g(d,p) m062x

Title Card Required

0 2
O        3.34493400      0.78750200      0.10770800
H        2.58758800      1.36448800     -0.08950900
C        2.40834300     -0.98553600      0.27159700
H        3.32120000     -1.49800600      0.47761400
C        1.23158000     -0.74612300      0.07476600
C       -0.01138200     -0.04521600     -0.20633100
O       -0.03852100      1.14174500     -0.40322500
O       -1.05965300     -0.85744000     -0.22084500
C       -2.34130000     -0.24195200     -0.47804800
C       -2.88671200      0.41907800      0.77199600
H       -2.96830600     -1.06928300     -0.80455200
H       -2.22585300      0.47303600     -1.29323700
H       -3.88652100      0.80835300      0.57088300
H       -2.95486000     -0.30365800      1.58628500
H       -2.25049600      1.24911100      1.07952900

