%nprocshared=24
%mem=12GB
%chk=ethyl_propiolate_ts1.chk
# freq 6-311++g(d,p) m062x

Title Card Required

0 2
O        3.29376400      0.70365200      0.10747300
H        2.56878900      1.31231300     -0.09897000
C        2.49038400     -0.79709600      0.26400200
H        3.26385000     -1.51272600      0.49422400
C        1.22554500     -0.76497700      0.08754900
C       -0.00751900     -0.04675500     -0.20546500
O       -0.04232300      1.13768800     -0.41859000
O       -1.05491500     -0.86436400     -0.20906000
C       -2.33964800     -0.25961700     -0.47390600
C       -2.88802500      0.41532100      0.76739100
H       -2.96271100     -1.09436900     -0.78907300
H       -2.22861700      0.44504500     -1.29874300
H       -3.88993000      0.79678200      0.56173500
H       -2.95207900     -0.29677600      1.59135900
H       -2.25593300      1.25266500      1.06346700

