%nprocshared=24
%mem=12GB
%chk=ethyl_propiolate_ts1.chk
# ccsd(t)/6-311++g(d,p) sp

Title Card Required

0 2
O        3.39181800      0.85900300      0.10979200
H        2.59715300      1.38951500     -0.07899300
C        2.34887300     -1.12900000      0.27353900
H        3.31248400     -1.53988500      0.46439800
C        1.22622600     -0.75176900      0.06645500
C       -0.01125500     -0.04180100     -0.20696000
O       -0.03402400      1.14786200     -0.39079800
O       -1.06402900     -0.84863500     -0.23100500
C       -2.34207300     -0.22446400     -0.48156500
C       -2.88498000      0.42490400      0.77573800
H       -2.97310900     -1.04490000     -0.81771200
H       -2.22321500      0.49946700     -1.28836800
H       -3.88277500      0.82151800      0.57892300
H       -2.95685900     -0.30680700      1.58166100
H       -2.24455400      1.24803700      1.09292800

