%nprocshared=24
%mem=12GB
%chk=ethyl_propiolate_ts1.chk
# freq 6-311++g(d,p) m062x

Title Card Required

0 2
O        3.40566200      0.88118200      0.11061200
H        2.59978400      1.39571500     -0.07605600
C        2.33287900     -1.16738500      0.27324600
H        3.29834800     -1.57478800      0.46234200
C        1.22330800     -0.75742600      0.06443000
C       -0.01091800     -0.04075300     -0.20710700
O       -0.03146500      1.14959200     -0.38698000
O       -1.06543800     -0.84538300     -0.23412700
C       -2.34239200     -0.21857500     -0.48271700
C       -2.88444300      0.42714800      0.77681100
H       -2.97455400     -1.03695400     -0.82177500
H       -2.22244500      0.50799500     -1.28699600
H       -3.88163500      0.82595800      0.58139200
H       -2.95740000     -0.30729500      1.58014900
H       -2.24277200      1.24818500      1.09691800

