%chk=ethyl_propiolate.chk
%nprocshared=24
%mem=12GB
# irc=(calcfc,maxpoints=10,maxcycle=900,stepsize=5) 6-311++g(d,p) m062x

Title Card Required

0 2
 O                  3.23005200    0.70454500    0.13012400
 H                  2.50367800    1.31467500   -0.06811900
 C                  2.40532500   -0.82464200    0.26927100
 H                  3.19116600   -1.52801200    0.48904200
 C                  1.14946600   -0.76076500    0.09031000
 C                 -0.08124200   -0.03590000   -0.19297500
 O                 -0.10917000    1.15122500   -0.38995400
 O                 -1.13207100   -0.84807000   -0.20784500
 C                 -2.41364900   -0.23295200   -0.46495300
 C                 -2.95891100    0.42799000    0.78518300
 H                 -3.04081700   -1.06015800   -0.79157800
 H                 -2.29843000    0.48213000   -1.28016300
 H                 -3.95871500    0.81739500    0.58430000
 H                 -3.02705900   -0.29482800    1.59942200
 H                 -2.32264000    1.25798000    1.09278300

