%chk=ethyl_propiolate.chk
%nprocshared=24
%mem=12GB
# ccsd(t)/6-311++g(d,p) sp

Title Card Required

0 2
 O                  3.29658700    0.84633200    0.11589900
 H                  2.51762800    1.39632200   -0.07984000
 C                  2.30440200   -1.05128500    0.29258900
 H                  3.25692600   -1.48518800    0.49094300
 C                  1.15974300   -0.73361300    0.08741800
 C                 -0.08337000   -0.03580300   -0.19325100
 O                 -0.11180600    1.15148200   -0.39036700
 O                 -1.13181600   -0.84821500   -0.20775500
 C                 -2.41318700   -0.23301700   -0.46488300
 C                 -2.95889000    0.42790800    0.78516500
 H                 -3.04028800   -1.06028500   -0.79147500
 H                 -2.29803000    0.48223700   -1.27990500
 H                 -3.95872400    0.81721200    0.58415300
 H                 -3.02691900   -0.29492600    1.59938900
 H                 -2.32256900    1.25783600    1.09275600

