%nprocshared=24
%mem=12GB
%chk=ethyl_propiolate_ts1.chk
# freq 6-31+g m062x

Title Card Required

0 2
O        3.24073700      0.72737000      0.12783000
H        2.50603700      1.32866800     -0.07012400
C        2.38857200     -0.86280000      0.27324900
H        3.20808800     -1.52304000      0.49049100
C        1.15180200     -0.75350300      0.08944700
C       -0.08244500     -0.03602000     -0.19310600
O       -0.10944300      1.15077900     -0.38992100
O       -1.13196600     -0.84832500     -0.20778300
C       -2.41371800     -0.23297300     -0.46495300
C       -2.95887800      0.42797300      0.78518300
H       -3.04071600     -1.06026400     -0.79155500
H       -2.29823600      0.48199300     -1.28018300
H       -3.95866200      0.81733400      0.58418400
H       -3.02709400     -0.29482100      1.59942300
H       -2.32268800      1.25801200      1.09280100
