%nprocshared=24
%mem=12GB
%chk=ethyl_propiolate_ts1.chk
# freq 6-311++g(d,p) m062x

Title Card Required

0 2
O        3.33879600      0.77801600      0.10755100
H        2.58552000      1.35942700     -0.09081500
C        2.41742400     -0.96451400      0.27098400
H        3.31787200     -1.49954900      0.47987200
C        1.23154100     -0.74675800      0.07599500
C       -0.01135100     -0.04549100     -0.20626800
O       -0.03898900      1.14106200     -0.40489700
O       -1.05904200     -0.85842500     -0.21949900
C       -2.34119200     -0.24415600     -0.47757600
C       -2.88690400      0.41839000      0.77151000
H       -2.96761400     -1.07242200     -0.80279600
H       -2.22620600      0.46962700     -1.29388000
H       -3.88697800      0.80668700      0.56985200
H       -2.95455200     -0.30315500      1.58689300
H       -2.25126100      1.24933600      1.07776400

