%nprocshared=24
%mem=12GB
%chk=ethyl_propiolate_ts1.chk
# freq 6-31+g m062x

Title Card Required

0 2
O        3.29042800      0.83341900      0.11717700
H        2.51749600      1.39132300     -0.07899700
C        2.31198900     -1.03287900      0.29061200
H        3.25709900     -1.48269700      0.49062000
C        1.16006200     -0.73383400      0.08748900
C       -0.08339600     -0.03600600     -0.19321900
O       -0.11154200      1.15122000     -0.39028800
O       -1.13181000     -0.84835200     -0.20773100
C       -2.41323100     -0.23304800     -0.46488100
C       -2.95887900      0.42791700      0.78515800
H       -3.04034000     -1.06031000     -0.79145400
H       -2.29799500      0.48215000     -1.27993600
H       -3.95870600      0.81721900      0.58411900
H       -3.02694200     -0.29489100      1.59940000
H       -2.32257200      1.25786100      1.09273500

