%nprocshared=24
%mem=12GB
%chk=ethyl_propiolate_ts1.chk
# freq 6-31+g m062x

Title Card Required

0 2
O        3.30905500      0.87289100      0.11324900
H        2.51778000      1.40600100     -0.08159700
C        2.28972300     -1.08730200      0.29649000
H        3.25246000     -1.49813500      0.49234900
C        1.15866200     -0.73452800      0.08743400
C       -0.08331500     -0.03535000     -0.19332300
O       -0.11215400      1.15201200     -0.39050400
O       -1.13185300     -0.84782500     -0.20783300
C       -2.41317100     -0.23289700     -0.46490900
C       -2.95893700      0.42789800      0.78518700
H       -3.04019000     -1.06022600     -0.79153100
H       -2.29819300      0.48245700     -1.27987800
H       -3.95879500      0.81718900      0.58425900
H       -3.02686700     -0.29500400      1.59935900
H       -2.32260900      1.25781000      1.09281200

