%nprocshared=24
%mem=12GB
%chk=ethyl_propiolate_ts1.chk
# freq 6-311++g(d,p) m062x

Title Card Required

0 2
O        3.29948400      0.71341200      0.10737200
H        2.57016800      1.31769300     -0.09786100
C        2.48204700     -0.81788800      0.26505500
H        3.27127700     -1.51486400      0.49290500
C        1.22584300     -0.76208800      0.08581500
C       -0.00837100     -0.04648100     -0.20563400
O       -0.04197900      1.13806500     -0.41674600
O       -1.05535000     -0.86372900     -0.21042400
C       -2.33990600     -0.25778700     -0.47437000
C       -2.88789200      0.41543300      0.76799900
H       -2.96325700     -1.09178600     -0.79087200
H       -2.22833100      0.44805700     -1.29809300
H       -3.88959200      0.79768300      0.56286000
H       -2.95236100     -0.29793600      1.59082500
H       -2.25545800      1.25203200      1.06544000

