%nprocshared=24
%mem=12GB
%chk=ethyl_propiolate_ts1.chk
# ccsd(t)/6-311++g(d,p) sp

Title Card Required

0 2
O        3.39877800      0.87001800      0.11019900
H        2.59845700      1.39258000     -0.07748100
C        2.34084600     -1.14837700      0.27342700
H        3.30597300     -1.55615900      0.46325700
C        1.22482800     -0.75437600      0.06541000
C       -0.01112000     -0.04124100     -0.20704300
O       -0.03287700      1.14876700     -0.38889900
O       -1.06471200     -0.84704700     -0.23256100
C       -2.34222800     -0.22158300     -0.48212900
C       -2.88470700      0.42597400      0.77628400
H       -2.97381900     -1.04100400     -0.81971900
H       -2.22284400      0.50366400     -1.28767600
H       -3.88220200      0.82368200      0.58016000
H       -2.95712600     -0.30709900      1.58092200
H       -2.24366200      1.24806400      1.09492700

