%chk=ethyl_propiolate.chk
%nprocshared=24
%mem=12GB
# freq 6-311++g(d,p) m062x

Title Card Required

0 2
 O                  3.28434300    0.82073300    0.11842900
 H                  2.51728200    1.38609500   -0.07814100
 C                  2.31973300   -1.01428400    0.28863400
 H                  3.25622800   -1.48221400    0.49046100
 C                  1.16022600   -0.73444800    0.08760500
 C                 -0.08344200   -0.03618300   -0.19319500
 O                 -0.11124300    1.15096300   -0.39021300
 O                 -1.13180600   -0.84846200   -0.20771000
 C                 -2.41329400   -0.23306500   -0.46488600
 C                 -2.95887200    0.42793100    0.78515000
 H                 -3.04039100   -1.06032900   -0.79144800
 H                 -2.29797700    0.48207900   -1.27997100
 H                 -3.95869200    0.81723000    0.58409600
 H                 -3.02696600   -0.29486100    1.59940300
 H                 -2.32258300    1.25789000    1.09272600

