%chk=ethyl_propiolate.chk
%nprocshared=24
%mem=12GB
# ccsd(t)/6-311++g(d,p) sp

Title Card Required

0 2
 O                  3.32748800    0.91439100    0.10898900
 H                  2.51809000    1.42073800   -0.08469800
 C                  2.26855000   -1.13873500    0.30203300
 H                  3.23681800   -1.53686100    0.49649700
 C                  1.15615600   -0.73930500    0.08789300
 C                 -0.08297600   -0.03495000   -0.19335500
 O                 -0.11159300    1.15248500   -0.39052700
 O                 -1.13208600   -0.84693800   -0.20806600
 C                 -2.41333200   -0.23238800   -0.46503700
 C                 -2.95911900    0.42796000    0.78526100
 H                 -3.04014700   -1.05983600   -0.79179000
 H                 -2.29863600    0.48318000   -1.27987600
 H                 -3.95905500    0.81719000    0.58461600
 H                 -3.02677400   -0.29517900    1.59924700
 H                 -2.32282200    1.25785400    1.09302000

