%nprocshared=24
%mem=12GB
%chk=ethyl_propiolate_ts1.chk
# ccsd(t)/6-311++g(d,p) sp

Title Card Required

0 2
O        3.31616600      0.74157900      0.10725200
H        2.57577600      1.33519000     -0.09480500
C        2.45518800     -0.88050400      0.26791400
H        3.29382400     -1.51294900      0.48810600
C        1.22817000     -0.75394000      0.08116600
C       -0.01031100     -0.04600800     -0.20600000
O       -0.04078900      1.13915000     -0.41150400
O       -1.05678500     -0.86168600     -0.21435500
C       -2.34057400     -0.25219800     -0.47574300
C       -2.88750500      0.41623300      0.76962300
H       -2.96499200     -1.08386800     -0.79606500
H       -2.22746100      0.45706600     -1.29625400
H       -3.88855100      0.80093800      0.56597600
H       -2.95327100     -0.30074100      1.58918700
H       -2.25387800      1.25052400      1.07095200

