%chk=ethyl_propiolate.chk
%nprocshared=24
%mem=12GB
# irc=(calcfc,maxpoints=10,maxcycle=900,stepsize=5) 6-311++g(d,p) m062x

Title Card Required

0 2
 O                  3.27844700    0.80838600    0.11965200
 H                  2.51662600    1.38013700   -0.07725900
 C                  2.32782400   -0.99553800    0.28668600
 H                  3.25346400   -1.48451700    0.49059800
 C                  1.16002400   -0.73556800    0.08774400
 C                 -0.08349800   -0.03629000   -0.19318600
 O                 -0.11095300    1.15076100   -0.39014200
 O                 -1.13179900   -0.84853400   -0.20769700
 C                 -2.41337300   -0.23308600   -0.46489000
 C                 -2.95886800    0.42795300    0.78513600
 H                 -3.04042000   -1.06040100   -0.79139100
 H                 -2.29799200    0.48194900   -1.28005300
 H                 -3.95868600    0.81722400    0.58403100
 H                 -3.02698500   -0.29478400    1.59942900
 H                 -2.32262600    1.25796900    1.09265600

