%nprocshared=24
%mem=12GB
%chk=ethyl_propiolate_ts1.chk
# irc=(calcfc,maxpoints=10,maxcycle=900,stepsize=5) 6-311++g(d,p) m062x

Title Card Required

0 2
 O                 -1.34743600    1.73721900    0.10268600
 H                 -1.97919900    1.82926000    0.83384200
 C                 -2.72950900   -0.46549400   -0.44837900
 H                 -3.75700000   -0.52715500   -0.72236000
 C                 -1.56664000   -0.33356800   -0.15246400
 C                 -0.16550400   -0.54573300    0.22435000
 O                  0.16879700   -0.88955900    1.32269100
 O                  0.63815400   -0.33725500   -0.81011400
 C                  2.05210500   -0.42365000   -0.53901000
 C                  2.54144600    0.84406000    0.13216200
 H                  2.50159200   -0.56268600   -1.52045400
 H                  2.23880400   -1.30453700    0.07625700
 H                  3.62335400    0.79333000    0.26927000
 H                  2.30610100    1.71293900   -0.48368700
 H                  2.07373200    0.96490900    1.10960100

