%chk=ethyl_propiolate.chk 
%nprocshared=24 
%mem=12GB 
# ccsd(t)/6-311++g(d,p) sp 

Title Card Required

0 2
 C                  2.46868300    1.29471700   -0.67241200
 H                  3.09745000    2.09281600   -0.99304200
 C                  1.76774300    0.39150200   -0.31147800
 C                  0.98670100   -0.75502700    0.14985900
 O                  1.49089400   -1.78400500    0.47473800
 O                 -0.35029900   -0.59035600    0.19420700
 C                 -0.95848300    0.63376200   -0.18517700
 C                 -1.10622600    1.58849100    0.96748700
 H                 -0.50527500    1.04723200   -1.08725800
 H                 -2.12247600    0.23638000   -0.53878200
 H                 -1.62314400    1.10176700    1.79533400
 H                 -0.11961400    1.91774100    1.31019300
 H                 -1.67733000    2.46507900    0.65947100
 O                 -3.14991500   -0.46733500   -0.67802200
 H                 -2.76749200   -1.30911700   -0.38611000

