%chk=ethyl_propiolate.chk 
%nprocshared=24 
%mem=12GB 
# ccsd(t)/6-311++g(d,p) sp 

Title Card Required

0 2
 C                  2.46863800    1.29471600   -0.67240100
 H                  3.09740500    2.09286700   -0.99311400
 C                  1.76763600    0.39149800   -0.31149200
 C                  0.98756200   -0.75537900    0.14952300
 O                  1.49071500   -1.78393000    0.47472100
 O                 -0.35158000   -0.58911400    0.19399500
 C                 -0.95183400    0.63447400   -0.18212600
 C                 -1.10804100    1.58758100    0.96664300
 H                 -0.52134400    1.04054000   -1.09743200
 H                 -2.24419500    0.16538700   -0.55888600
 H                 -1.62284000    1.10178300    1.79654500
 H                 -0.11899800    1.91574300    1.30833600
 H                 -1.67752600    2.46518300    0.65929100
 O                 -3.14350000   -0.46324100   -0.67707600
 H                 -2.77509100   -1.30893000   -0.38855300

