%chk=ethyl_propiolate.chk 
%nprocshared=24 
%mem=12GB 
# ccsd(t)/6-311++g(d,p) sp 

Title Card Required

0 2
 C                  2.46867100    1.29471900   -0.67241100
 H                  3.09743700    2.09283300   -0.99305900
 C                  1.76772000    0.39150100   -0.31148300
 C                  0.98689200   -0.75509500    0.14978300
 O                  1.49085200   -1.78398500    0.47473400
 O                 -0.35055300   -0.59010000    0.19417300
 C                 -0.95740100    0.63374600   -0.18459900
 C                 -1.10662900    1.58829500    0.96729900
 H                 -0.50878700    1.04580000   -1.08942700
 H                 -2.14647500    0.22169400   -0.54233200
 H                 -1.62306700    1.10176800    1.79557900
 H                 -0.11944500    1.91725600    1.30968000
 H                 -1.67738200    2.46509200    0.65942500
 O                 -3.14844400   -0.46637000   -0.67780900
 H                 -2.76876700   -1.30893600   -0.38656200

