%chk=ethyl_propiolate.chk 
%nprocshared=24 
%mem=12GB 
# ccsd(t)/6-311++g(d,p) sp 

Title Card Required

0 2
 C                  2.46905000    1.29453400   -0.67230800
 H                  3.09770500    2.09257800   -0.99274700
 C                  1.76827100    0.39133800   -0.31104600
 C                  0.98419100   -0.75480300    0.15119100
 O                  1.49166500   -1.78425500    0.47482400
 O                 -0.34881300   -0.59282200    0.19348600
 C                 -0.95208400    0.64522400   -0.18992200
 C                 -1.09895700    1.59225000    0.97220100
 H                 -0.43722800    1.07412700   -1.05122700
 H                 -1.97013700    0.36085600   -0.55476300
 H                 -1.62478300    1.10113500    1.79211600
 H                 -0.12095800    1.92719000    1.32620500
 H                 -1.67431600    2.46638900    0.66259600
 O                 -3.17555100   -0.48579400   -0.68131500
 H                 -2.75752300   -1.31186600   -0.38137800

