%chk=ethyl_propiolate.chk 
%nprocshared=24 
%mem=12GB 
# ccsd(t)/6-311++g(d,p) sp 

Title Card Required

0 2
 C                  2.46890400    1.29462800   -0.67237600
 H                  3.09757600    2.09268100   -0.99282900
 C                  1.76806900    0.39143900   -0.31125300
 C                  0.98472400   -0.75471900    0.15083600
 O                  1.49148000   -1.78420300    0.47478400
 O                 -0.34876800   -0.59258200    0.19394800
 C                 -0.95661800    0.64077000   -0.18900800
 C                 -1.10101200    1.59111200    0.97057300
 H                 -0.45718100    1.06628000   -1.06116500
 H                 -1.98955700    0.33928100   -0.54229500
 H                 -1.62424500    1.10153900    1.79300300
 H                 -0.12091300    1.92481900    1.32081800
 H                 -1.67566100    2.46565300    0.66124000
 O                 -3.16801200   -0.48016400   -0.68044400
 H                 -2.75957400   -1.31137700   -0.38266900

