%chk=ethyl_propiolate.chk 
%nprocshared=24 
%mem=12GB 
# ccsd(t)/6-311++g(d,p) sp 

Title Card Required

0 2
 C                  2.46863200    1.29471400   -0.67239800
 H                  3.09739600    2.09287100   -0.99312500
 C                  1.76761500    0.39149800   -0.31149400
 C                  0.98772300   -0.75545700    0.14945900
 O                  1.49068400   -1.78392300    0.47471800
 O                 -0.35186400   -0.58884700    0.19393500
 C                 -0.95001400    0.63484800   -0.18140000
 C                 -1.10839100    1.58739500    0.96647500
 H                 -0.52460100    1.03914400   -1.09952500
 H                 -2.26885700    0.15223100   -0.56352500
 H                 -1.62280100    1.10177600    1.79679100
 H                 -0.11897500    1.91543500    1.30813300
 H                 -1.67756300    2.46520800    0.65925300
 O                 -3.14250100   -0.46264400   -0.67692400
 H                 -2.77713300   -1.30918000   -0.38913400

