%chk=ethyl_propiolate.chk 
%nprocshared=24 
%mem=12GB 
# ccsd(t)/6-311++g(d,p) sp 

Title Card Required

0 2
 C                  2.46913800    1.29446600   -0.67226300
 H                  3.09779900    2.09249500   -0.99271000
 C                  1.76839600    0.39126600   -0.31091800
 C                  0.98395100   -0.75486700    0.15135900
 O                  1.49173500   -1.78428400    0.47485400
 O                 -0.34890100   -0.59281600    0.19318600
 C                 -0.94956300    0.64757600   -0.19039500
 C                 -1.09795200    1.59282700    0.97306800
 H                 -0.42727300    1.07807000   -1.04633700
 H                 -1.96184300    0.37031700   -0.56161400
 H                 -1.62510700    1.10086500    1.79164100
 H                 -0.12093100    1.92819400    1.32903400
 H                 -1.67350500    2.46688000    0.66340000
 O                 -3.17939300   -0.48870700   -0.68171600
 H                 -2.75645700   -1.31203100   -0.38064400

