%chk=ethyl_propiolate.chk 
%nprocshared=24 
%mem=12GB 
# ccsd(t)/6-311++g(d,p) sp 

Title Card Required

0 2
 C                  2.46871700    1.29470200   -0.67241300
 H                  3.09748100    2.09277800   -0.99300200
 C                  1.76779700    0.39150000   -0.31146200
 C                  0.98626100   -0.75489100    0.15003900
 O                  1.49099300   -1.78405700    0.47475100
 O                 -0.34977400   -0.59091700    0.19426000
 C                 -0.96028200    0.63411800   -0.18635000
 C                 -1.10528600    1.58894700    0.96792800
 H                 -0.49704100    1.05055600   -1.08234600
 H                 -2.07521000    0.26645900   -0.53259700
 H                 -1.62333600    1.10177300    1.79482400
 H                 -0.12001700    1.91895400    1.31160700
 H                 -1.67718600    2.46507800    0.65961500
 O                 -3.15323100   -0.46955300   -0.67850700
 H                 -2.76511500   -1.30964800   -0.38520400

