%chk=ethyl_propiolate.chk 
%nprocshared=24 
%mem=12GB 
# ccsd(t)/6-311++g(d,p) sp 

Title Card Required

0 2
 C                  2.46897000    1.29458800   -0.67234700
 H                  3.09762500    2.09264200   -0.99278800
 C                  1.76816200    0.39139500   -0.31115800
 C                  0.98444700   -0.75475300    0.15101600
 O                  1.49157800   -1.78422800    0.47480100
 O                 -0.34876600   -0.59274500    0.19374000
 C                 -0.95444300    0.64294800   -0.18945800
 C                 -1.09998200    1.59167500    0.97136600
 H                 -0.44716500    1.07021500   -1.05615100
 H                 -1.97934700    0.35056500   -0.54832900
 H                 -1.62450100    1.10135700    1.79256600
 H                 -0.12096000    1.92606700    1.32347200
 H                 -1.67503900    2.46598000    0.66187800
 O                 -3.17174600   -0.48293900   -0.68088800
 H                 -2.75854900   -1.31164400   -0.38204800

