%chk=ethyl_propiolate.chk
%nprocshared=24
%mem=12GB
# irc=(calcfc,maxpoints=10,maxcycle=900,stepsize=5) 6-311++g(d,p) m062x

Title Card Required

0 2
 O                  3.30280800    0.85949100    0.11459200
 H                  2.51771500    1.40119500   -0.08070200
 C                  2.29699700   -1.06944600    0.29455400
 H                  3.25530000   -1.49036400    0.49151300
 C                  1.15926800   -0.73383100    0.08739600
 C                 -0.08335100   -0.03557500   -0.19328800
 O                 -0.11202200    1.15175300   -0.39044200
 O                 -1.13182800   -0.84804100   -0.20778800
 C                 -2.41316700   -0.23297100   -0.46489100
 C                 -2.95890900    0.42790100    0.78517400
 H                 -3.04023600   -1.06026300   -0.79149800
 H                 -2.29809500    0.48233300   -1.27988600
 H                 -3.95875200    0.81719900    0.58419700
 H                 -3.02689400   -0.29496300    1.59937600
 H                 -2.32258100    1.25781900    1.09278000

