%chk=ethyl_propiolate.chk 
%nprocshared=24 
%mem=12GB 
# ccsd(t)/6-311++g(d,p) sp 

Title Card Required

0 2
 C                 -1.57870600   -1.28294400   -0.30856600
 H                 -1.90729300   -2.28432900   -0.52788200
 C                 -0.57677900   -0.51051500   -0.30516300
 C                  0.03819600    0.79669600   -0.05938500
 O                 -0.63251500    1.73384700    0.27191500
 O                  1.35337400    0.89520000   -0.23425000
 C                  2.13063100   -0.28060800   -0.52575100
 C                  2.46309600   -1.04023300    0.74269600
 H                  1.59415500   -0.90416200   -1.24602800
 H                  3.02692100    0.10635800   -1.00756500
 H                  2.97818300   -0.38804800    1.44897800
 H                  1.55889500   -1.42682200    1.21702100
 H                  3.11403000   -1.88470800    0.50818400
 O                 -3.05824900   -0.48950300    0.25469400
 H                 -2.75514200    0.42082600    0.39879600

