%chk=ethyl_propiolate.chk 
%nprocshared=24 
%mem=12GB 
# ccsd(t)/6-311++g(d,p) sp 

Title Card Required

0 2
 C                 -1.49351800   -1.33514900   -0.34289800
 H                 -1.95402300   -2.28484600   -0.51806100
 C                 -0.59111200   -0.50268700   -0.29935600
 C                  0.03952000    0.79778400   -0.05951800
 O                 -0.63144600    1.73411200    0.27197500
 O                  1.35324600    0.89491300   -0.23441100
 C                  2.13037800   -0.28111900   -0.52593300
 C                  2.46305000   -1.04015300    0.74271300
 H                  1.59253900   -0.90454200   -1.24502400
 H                  3.02642300    0.10590300   -1.00802200
 H                  2.97841200   -0.38802900    1.44887600
 H                  1.55880500   -1.42700600    1.21659000
 H                  3.11380900   -1.88468000    0.50797600
 O                 -3.10844600   -0.45824400    0.27507500
 H                 -2.78055700    0.44721200    0.41057600

