%chk=ethyl_propiolate.chk 
%nprocshared=24 
%mem=12GB 
# ccsd(t)/6-311++g(d,p) sp 

Title Card Required

0 2
 C                 -1.61168100   -1.26108400   -0.29480400
 H                 -1.89178700   -2.27659900   -0.52927700
 C                 -0.57170200   -0.51498700   -0.30766200
 C                  0.03715600    0.79565700   -0.05937500
 O                 -0.63306200    1.73393600    0.27197800
 O                  1.35330800    0.89533300   -0.23416600
 C                  2.13075900   -0.28031000   -0.52569600
 C                  2.46313400   -1.04025800    0.74267100
 H                  1.59505100   -0.90395700   -1.24636600
 H                  3.02731600    0.10676100   -1.00705400
 H                  2.97812100   -0.38806900    1.44904600
 H                  1.55887800   -1.42672100    1.21698800
 H                  3.11415900   -1.88471900    0.50825800
 O                 -3.03763500   -0.50210500    0.24638000
 H                 -2.74676100    0.41095200    0.39495400

