%chk=ethyl_propiolate.chk 
%nprocshared=24 
%mem=12GB 
# ccsd(t)/6-311++g(d,p) sp 

Title Card Required

0 2
 C                 -1.39516800   -1.39874600   -0.38319100
 H                 -1.97572500   -2.28266800   -0.51353600
 C                 -0.59741000   -0.49775700   -0.29631000
 C                  0.03876600    0.79817400   -0.05935800
 O                 -0.63074900    1.73599700    0.27250500
 O                  1.35265900    0.89468400   -0.23453000
 C                  2.13038500   -0.28139800   -0.52606100
 C                  2.46293500   -1.04001600    0.74287600
 H                  1.59264900   -0.90482700   -1.24433000
 H                  3.02664800    0.10640700   -1.00712500
 H                  2.97837700   -0.38794000    1.44908500
 H                  1.55850000   -1.42719300    1.21583200
 H                  3.11373700   -1.88453400    0.50807000
 O                 -3.17411900   -0.41800600    0.30144600
 H                 -2.80397700    0.47543800    0.42100400

