%chk=ethyl_propiolate.chk 
%nprocshared=24 
%mem=12GB 
# ccsd(t)/6-311++g(d,p) sp 

Title Card Required

0 2
 C                 -1.51062100   -1.32479200   -0.33605800
 H                 -1.94504600   -2.28650600   -0.52019900
 C                 -0.58851500   -0.50390600   -0.30037400
 C                  0.03945100    0.79770100   -0.05950400
 O                 -0.63162900    1.73395800    0.27192600
 O                  1.35329700    0.89496500   -0.23437900
 C                  2.13042100   -0.28104300   -0.52588300
 C                  2.46305100   -1.04017000    0.74272500
 H                  1.59274400   -0.90446800   -1.24522800
 H                  3.02645600    0.10594200   -1.00802900
 H                  2.97836800   -0.38802900    1.44888600
 H                  1.55883100   -1.42697900    1.21672000
 H                  3.11384000   -1.88467900    0.50800800
 O                 -3.09833500   -0.46454600    0.27096100
 H                 -2.77513400    0.44183400    0.40807700

