%chk=ethyl_propiolate.chk 
%nprocshared=24 
%mem=12GB 
# ccsd(t)/6-311++g(d,p) sp 

Title Card Required

0 2
 C                 -1.30635700   -1.45914600   -0.42055400
 H                 -1.91791100   -2.32317100   -0.53859600
 C                 -0.59165200   -0.50093400   -0.29843100
 C                  0.03715500    0.79782200   -0.05919600
 O                 -0.63199900    1.73602100    0.27303300
 O                  1.35136800    0.89494300   -0.23433400
 C                  2.13168100   -0.28020200   -0.52579600
 C                  2.46296900   -1.03958800    0.74305800
 H                  1.59703800   -0.90328400   -1.24604400
 H                  3.02849500    0.11028000   -1.00360700
 H                  2.97760800   -0.38785600    1.45018400
 H                  1.55845600   -1.42781100    1.21472400
 H                  3.11448000   -1.88355500    0.50814300
 O                 -3.24509900   -0.37111800    0.33101600
 H                 -2.82281200    0.50297200    0.42590000

