%chk=ethyl_propiolate.chk 
%nprocshared=24 
%mem=12GB 
# ccsd(t)/6-311++g(d,p) sp 

Title Card Required

0 2
 C                 -1.44331300   -1.36673100   -0.36323300
 H                 -1.97313100   -2.28042900   -0.51320300
 C                 -0.59612000   -0.49961100   -0.29714600
 C                  0.03928300    0.79790600   -0.05948100
 O                 -0.63100000    1.73492000    0.27219900
 O                  1.35301100    0.89476100   -0.23449900
 C                  2.13029900   -0.28131800   -0.52607300
 C                  2.46304900   -1.04010600    0.74270200
 H                  1.59222600   -0.90470700   -1.24454600
 H                  3.02638300    0.10599300   -1.00787100
 H                  2.97860600   -0.38802200    1.44878400
 H                  1.55873900   -1.42712400    1.21615300
 H                  3.11377000   -1.88463300    0.50775800
 O                 -3.14023900   -0.43869800    0.28789500
 H                 -2.79434000    0.46207700    0.41738400

