%nprocshared=4
%mem=150MW
%chk=ethyl_propiolate.chk
# ccsd(t)/6-311++g(d,p) sp

Title Card Required

0 2
 C                  2.34759100   -0.42414200    0.00000200
 H                  3.43188700   -0.46214500    0.00000200
 C                  1.68983500    0.72807400   -0.00000600
 C                  0.28183700    1.07407500   -0.00000700
 O                 -0.19507900    2.17344800   -0.00001300
 O                 -0.47564000   -0.06365700    0.00000100
 C                 -1.90353700    0.13174400    0.00000100
 C                 -2.54562900   -1.23619900    0.00000500
 H                 -2.17190100    0.71397200    0.88331800
 H                 -2.17190100    0.71396700   -0.88331900
 H                 -2.25582100   -1.80107900   -0.88764900
 H                 -2.25582100   -1.80107400    0.88766100
 H                 -3.63185200   -1.13190000    0.00000500
 O                  1.79611900   -1.65018000    0.00001200
 H                  0.83161900   -1.54994000    0.00001100

