%nprocshared=4
%mem=150MW
%chk=ethyl_propiolate.chk
# uccsd(t)/6-311++g(d,p) sp

Title Card Required

0 2
 C                  2.53332000   -0.74755800    0.00000300
 H                  3.27026400   -1.54404000    0.00001100
 C                  1.22436200   -0.98958800    0.00000800
 C                  0.16706000   -0.00297600   -0.00000100
 O                  0.41613700    1.19198700   -0.00001300
 O                 -1.06294700   -0.49884600    0.00000600
 C                 -2.13474000    0.46306700   -0.00000100
 C                 -3.42908700   -0.31670900    0.00001000
 H                 -2.03395000    1.09680700    0.88343800
 H                 -2.03395400    1.09678800   -0.88345400
 H                 -3.49532000   -0.94964600   -0.88580300
 H                 -3.49531500   -0.94962900    0.88583500
 H                 -4.27526200    0.37223500    0.00000500
 O                  3.08799000    0.47089200   -0.00001000
 H                  2.36861900    1.12780500   -0.00001500

