%nprocshared=24
%mem=12GB
%chk=ethyl_propiolate_ts1.chk
# freq 6-31+g m062x

Title Card Required

0 2
O        2.34606900      1.71116100     -0.32262100
H        1.52427800      1.77296800      0.20177600
C       -3.31739000      0.18934500     -0.51618100
H       -4.33331000      0.26138700     -0.82770400
C       -2.17522000      0.10771200     -0.16484700
C       -0.78980200      0.05957200      0.27274300
O       -0.22779300      0.98757600      0.79727500
O       -0.24677900     -1.12483700      0.02757300
C        1.12169200     -1.32563300      0.44505300
C        2.09954400     -0.84847800     -0.60052300
H        1.19203400     -2.40427700      0.57719600
H        1.27395800     -0.83352300      1.40662800
H        3.10114900     -1.22031500     -0.38124400
H        1.79996800     -1.16725500     -1.59975900
H        2.18827100      0.24962700     -0.63544100

