%nprocshared=24
%mem=12GB
%chk=ethyl_propiolate_ts1.chk
# freq 6-31+g m062x

Title Card Required

0 2
O        2.34580400      1.70664100     -0.32366100
H        1.52472500      1.77290900      0.20103800
C       -3.31741800      0.18933300     -0.51619700
H       -4.33334100      0.26142800     -0.82769700
C       -2.17524700      0.10764600     -0.16489900
C       -0.78990400      0.05961700      0.27278400
O       -0.22798400      0.98746700      0.79747400
O       -0.24663000     -1.12486800      0.02751000
C        1.12183500     -1.32488800      0.44474800
C        2.09963300     -0.84475600     -0.59933800
H        1.19342400     -2.40369400      0.57533300
H        1.27371000     -0.83412600      1.40710300
H        3.10162800     -1.21667100     -0.38208700
H        1.79960300     -1.15616200     -1.60070500
H        2.19058800      0.25616600     -0.62732800

