%nprocshared=24
%mem=12GB
%chk=ethyl_propiolate_ts1.chk
# freq 6-311++g(d,p) m062x

Title Card Required

0 2
O        2.28796800      1.70629000     -0.32178100
H        1.47223200      1.80011600      0.20448100
C       -3.37281800      0.21238400     -0.50684300
H       -4.38878200      0.28379800     -0.81838000
C       -2.23062500      0.13157000     -0.15556900
C       -0.84586400      0.08600400      0.28283500
O       -0.28479800      1.01350100      0.80687600
O       -0.30022100     -1.09983500      0.03876200
C        1.06765600     -1.29328500      0.45502000
C        2.04506700     -0.79911500     -0.58205600
H        1.14806900     -2.37281700      0.57996900
H        1.21853700     -0.80759700      1.42031500
H        3.05275900     -1.15944800     -0.37278000
H        1.74432600     -1.06637600     -1.59541200
H        2.14876800      0.33733000     -0.56937800

