%chk=ethyl_propiolate.chk
%nprocshared=24
%mem=12GB
# irc=(calcfc,maxpoints=10,maxcycle=900,stepsize=5) 6-311++g(d,p) m062x

Title Card Required

0 2
 O                  2.34354600    1.67268800   -0.33072400
 H                  1.53029600    1.77425600    0.19600400
 C                 -3.31751500    0.18925000   -0.51625700
 H                 -4.33347200    0.26177400   -0.82758500
 C                 -2.17534500    0.10723900   -0.16523400
 C                 -0.79079400    0.06081600    0.27320500
 O                 -0.22920600    0.98652100    0.79860300
 O                 -0.24523500   -1.12574200    0.02714400
 C                  1.12203300   -1.31889900    0.44275300
 C                  2.09962600   -0.82233000   -0.59217300
 H                  1.20453400   -2.39919100    0.56480900
 H                  1.27390500   -0.83620300    1.40949400
 H                  3.11028900   -1.17408900   -0.38413800
 H                  1.79854200   -1.07296500   -1.60933900
 H                  2.21049100    0.35007000   -0.56509600

