%nprocshared=24
%mem=12GB
%chk=ethyl_propiolate_ts1.chk
# freq 6-311++g(d,p) m062x

Title Card Required

0 2
O        2.28824100      1.68703400     -0.32081400
H        1.47961300      1.80021800      0.20590900
C       -3.37293200      0.21595500     -0.50609500
H       -4.38888100      0.28959800     -0.81725000
C       -2.23079500      0.13276100     -0.15527600
C       -0.84651100      0.08572000      0.28328500
O       -0.28427000      1.00951000      0.80954200
O       -0.30106500     -1.10204600      0.03567400
C        1.06534000     -1.29449600      0.45072400
C        2.04287000     -0.80078900     -0.58246700
H        1.15028300     -2.37619600      0.57074900
H        1.21877500     -0.81465700      1.41891600
H        3.05856600     -1.13510400     -0.37420700
H        1.74121200     -1.02822200     -1.60423700
H        2.16934400      0.47348100     -0.53611700

