%nprocshared=24
%mem=12GB
%chk=ethyl_propiolate_ts1.chk
# freq 6-31+g m062x

Title Card Required

0 2
O        2.34211600      1.65976000     -0.33291400
H        1.53679900      1.78115400      0.19338100
C       -3.31749900      0.18922900     -0.51625800
H       -4.33349200      0.26193800     -0.82752800
C       -2.17532700      0.10712500     -0.16531100
C       -0.79117500      0.06182300      0.27349400
O       -0.22953500      0.98604700      0.79875000
O       -0.24460300     -1.12640100      0.02704100
C        1.12154500     -1.31642600      0.44219300
C        2.09837200     -0.82739200     -0.59096100
H        1.20867200     -2.39876700      0.56329600
H        1.27524900     -0.83635500      1.41050700
H        3.11777400     -1.14752300     -0.38139600
H        1.79664400     -1.04193300     -1.61497900
H        2.23572200      0.52886300     -0.53534700
