%nprocshared=24
%mem=12GB
%chk=ethyl_propiolate_ts1.chk
# ccsd(t)/6-311++g(d,p) sp

Title Card Required

0 2
O        2.28902700      1.67641800     -0.32002700
H        1.48642800      1.80382900      0.20649400
C       -3.37294900      0.21922800     -0.50565100
H       -4.38885700      0.29458200     -0.81659300
C       -2.23088400      0.13416800     -0.15507300
C       -0.84684300      0.08549300      0.28349700
O       -0.28338800      1.00715700      0.81079900
O       -0.30230700     -1.10349200      0.03411300
C        1.06334100     -1.29634600      0.44850400
C        2.04055000     -0.81023100     -0.58340500
H        1.14928600     -2.37962300      0.56719900
H        1.21847100     -0.81932200      1.41830000
H        3.06177700     -1.12305600     -0.37396500
H        1.73812200     -1.01195700     -1.60936100
H        2.18883100      0.60100800     -0.51838600

