%chk=ethyl_propiolate.chk
%nprocshared=24
%mem=12GB
# irc=(calcfc,maxpoints=10,maxcycle=900,stepsize=5) 6-311++g(d,p) m062x

Title Card Required

0 2
 O                  2.34439200    1.68410600   -0.32850600
 H                  1.52764100    1.77305400    0.19768800
 C                 -3.31750800    0.18927600   -0.51624800
 H                 -4.33344800    0.26164300   -0.82763400
 C                 -2.17533500    0.10736100   -0.16513600
 C                 -0.79045500    0.06014400    0.27300900
 O                 -0.22882900    0.98689500    0.79831800
 O                 -0.24578800   -1.12527400    0.02725300
 C                  1.12223800   -1.32100500    0.44332200
 C                  2.09984400   -0.82766300   -0.59412900
 H                  1.20059600   -2.40056900    0.56759100
 H                  1.27326300   -0.83591000    1.40885100
 H                  3.10592700   -1.19250900   -0.38462300
 H                  1.79892600   -1.10125500   -1.60585400
 H                  2.20150200    0.29795800   -0.58690400

