%nprocshared=24
%mem=12GB
%chk=ethyl_propiolate_ts1.chk
# freq 6-311++g(d,p) m062x

Title Card Required

0 2
O        2.28961100      1.73856800     -0.32186800
H        1.46765200      1.80262400      0.20199500
C       -3.37241700      0.21050000     -0.50789700
H       -4.38833500      0.27983100     -0.82003900
C       -2.23024800      0.13192200     -0.15586400
C       -0.84488000      0.08755100      0.28228300
O       -0.28382900      1.01905400      0.80161400
O       -0.30072500     -1.09774500      0.04400800
C        1.06783900     -1.29490000      0.46291600
C        2.04547900     -0.82284300     -0.58516900
H        1.13913600     -2.37270500      0.60124400
H        1.21945100     -0.79715700      1.42169100
H        3.04737600     -1.19250500     -0.36355700
H        1.74640700     -1.14760600     -1.58262700
H        2.13321300      0.27512400     -0.62635200

