%nprocshared=24
%mem=12GB
%chk=ethyl_propiolate_ts1.chk
# ccsd(t)/6-311++g(d,p) sp

Title Card Required

0 2
O        2.28810900      1.68944200     -0.32098200
H        1.47834100      1.79993600      0.20577100
C       -3.37292500      0.21531900     -0.50619500
H       -4.38888200      0.28861300     -0.81739700
C       -2.23077700      0.13250400     -0.15532000
C       -0.84643900      0.08576800      0.28323300
O       -0.28442400      1.01003600      0.80923500
O       -0.30084800     -1.10173700      0.03604900
C        1.06573700     -1.29415800      0.45124100
C        2.04329300     -0.79937000     -0.58229800
H        1.15033100     -2.37550700      0.57170300
H        1.21880900     -0.81363900      1.41907200
H        3.05786900     -1.13776700     -0.37416100
H        1.74178800     -1.03203900     -1.60310700
H        2.16571700      0.44810500     -0.54025900

