%nprocshared=24
%mem=12GB
%chk=ethyl_propiolate_ts1.chk
# freq 6-311++g(d,p) m062x

Title Card Required

0 2
O        2.28883400      1.72483100     -0.32191200
H        1.46916900      1.80145000      0.20296500
C       -3.37260500      0.21113000     -0.50746600
H       -4.38854500      0.28127700     -0.81935500
C       -2.23041900      0.13165800     -0.15575300
C       -0.84527100      0.08674200      0.28250900
O       -0.28435500      1.01673400      0.80396500
O       -0.30045300     -1.09847800      0.04173000
C        1.06803900     -1.29410800      0.45945900
C        2.04548900     -0.81149400     -0.58350600
H        1.14309300     -2.37264800      0.59141200
H        1.21875100     -0.80196200      1.42135300
H        3.04890300     -1.18062200     -0.36830500
H        1.74526700     -1.11221500     -1.58794500
H        2.13974300      0.29645200     -0.60185100

