%nprocshared=24
%mem=12GB
%chk=ethyl_propiolate_ts1.chk
# freq 6-31+g m062x

Title Card Required

0 2
O        2.34269200      1.66422100     -0.33221300
H        1.53396000      1.77743100      0.19434500
C       -3.31750500      0.18923700     -0.51625800
H       -4.33348500      0.26188600     -0.82754700
C       -2.17533400      0.10716200     -0.16528800
C       -0.79104400      0.06149100      0.27339900
O       -0.22943800      0.98620300      0.79871300
O       -0.24480600     -1.12617800      0.02707100
C        1.12170200     -1.31729500      0.44240000
C        2.09896600     -0.82403600     -0.59125700
H        1.20734700     -2.39881100      0.56357000
H        1.27476800     -0.83633500      1.41009400
H        3.11486900     -1.15746600     -0.38258800
H        1.79751500     -1.05274400     -1.61280300
H        2.22460200      0.45036400     -0.54624300

