%nprocshared=24
%mem=12GB
%chk=ethyl_propiolate_ts1.chk
# ccsd(t)/6-311++g(d,p) sp

Title Card Required

0 2
O        2.28852400      1.68251700     -0.32049200
H        1.48222600      1.80119000      0.20615900
C       -3.37294200      0.21723600     -0.50590800
H       -4.38887600      0.29156500     -0.81697300
C       -2.23083100      0.13329700     -0.15519100
C       -0.84664700      0.08562200      0.28337700
O       -0.28394000      1.00852100      0.81009400
O       -0.30153100     -1.10263700      0.03499300
C        1.06455100     -1.29520900      0.44977100
C        2.04199400     -0.80406600     -0.58282600
H        1.15002500     -2.37757500      0.56910400
H        1.21867400     -0.81660000      1.41864500
H        3.05988900     -1.13019800     -0.37420500
H        1.74002200     -1.02134300     -1.60638000
H        2.17685200      0.52447100     -0.52843800

