%chk=ethyl_propiolate.chk
%nprocshared=24
%mem=12GB
# irc=(calcfc,maxpoints=10,maxcycle=900,stepsize=5) 6-311++g(d,p) m062x

Title Card Required

0 2
 O                  2.34331892    1.67029070   -0.33115831
 H                  1.53121792    1.77493470    0.19555869
 C                 -3.31751208    0.18924670   -0.51625731
 H                 -4.33347608    0.26180570   -0.82757431
 C                 -2.17534208    0.10721670   -0.16525031
 C                 -0.79086608    0.06100970    0.27326069
 O                 -0.22927608    0.98642870    0.79863869
 O                 -0.24511008   -1.12586630    0.02712169
 C                  1.12193892   -1.31844530    0.44265169
 C                  2.09947392   -0.82245530   -0.59188131
 H                  1.20535492   -2.39904830    0.56440069
 H                  1.27414592   -0.83624430    1.40964869
 H                  3.11151792   -1.16952130   -0.38375331
 H                  1.79829992   -1.06717730   -1.61027431
 H                  2.21398992    0.37446670   -0.55992231

