%nprocshared=24
%mem=12GB
%chk=ethyl_propiolate_ts1.chk
# freq 6-311++g(d,p) m062x

Title Card Required

0 2
O        2.28786500      1.69815000     -0.32149900
H        1.47458300      1.79976200      0.20517200
C       -3.37288500      0.21346300     -0.50654200
H       -4.38885100      0.28565000     -0.81791900
C       -2.23070500      0.13183100     -0.15546400
C       -0.84615300      0.08587200      0.28302100
O       -0.28476700      1.01190600      0.80805500
O       -0.30034300     -1.10067200      0.03745100
C        1.06695700     -1.29337700      0.45316500
C        2.04446700     -0.79702400     -0.58194300
H        1.14968000     -2.37360300      0.57565900
H        1.21871000     -0.81025800      1.41971300
H        3.05519900     -1.14848900     -0.37374600
H        1.74345500     -1.04813300     -1.59901400
H        2.15508900      0.37541000     -0.55533900

