%nprocshared=24
%mem=12GB
%chk=ethyl_propiolate_ts1.chk
# freq 6-31+g m062x

Title Card Required

0 2
O        2.28793100      1.69511900     -0.32132300
H        1.47583000      1.79976300      0.20539400
C       -3.37290000      0.21407500     -0.50642200
H       -4.38886400      0.28663400     -0.81773900
C       -2.23073000      0.13204500     -0.15541500
C       -0.84625400      0.08583800      0.28309600
O       -0.28466400      1.01125700      0.80847400
O       -0.30049800     -1.10103800      0.03695700
C        1.06655100     -1.29361700      0.45248700
C        2.04408600     -0.79762700     -0.58204600
H        1.14996700     -2.37422000      0.57423600
H        1.21875800     -0.81141600      1.41948400
H        3.05613000     -1.14469300     -0.37391800
H        1.74291200     -1.04234900     -1.60043900
H        2.15860200      0.39929500     -0.55008700
