%nprocshared=24
%mem=12GB
%chk=ethyl_propiolate_ts1.chk
# ccsd(t)/6-311++g(d,p) sp

Title Card Required

0 2
O        2.28884600      1.67836100     -0.32018300
H        1.48498000      1.80276000      0.20638300
C       -3.37294700      0.21855000     -0.50573300
H       -4.38886500      0.29356100     -0.81671500
C       -2.23086600      0.13386700     -0.15511100
C       -0.84677700      0.08553200      0.28345800
O       -0.28358000      1.00759800      0.81057800
O       -0.30203700     -1.10320800      0.03438800
C        1.06375200     -1.29595900      0.44890800
C        2.04105500     -0.80798200     -0.58320800
H        1.14958000     -2.37894700      0.56775900
H        1.21854200     -0.81843800      1.41840900
H        3.06114600     -1.12549600     -0.37408200
H        1.73877500     -1.01505700     -1.60838800
H        2.18471000      0.57556200     -0.52151400

