%nprocshared=24
%mem=12GB
%chk=ethyl_propiolate_ts1.chk
# freq 6-311++g(d,p) m062x

Title Card Required

0 2
O        2.28909000      1.72944000     -0.32190300
H        1.46861300      1.80184200      0.20263100
C       -3.37254400      0.21090700     -0.50761300
H       -4.38847700      0.28077500     -0.81958800
C       -2.23036400      0.13173600     -0.15579100
C       -0.84513700      0.08699600      0.28243400
O       -0.28419200      1.01751200      0.80319500
O       -0.30054100     -1.09821400      0.04248300
C        1.06799900     -1.29437200      0.46060500
C        2.04550900     -0.81517500     -0.58402400
H        1.14177700     -2.37267600      0.59458300
H        1.21894500     -0.80043300      1.42151000
H        3.04829400     -1.18491400     -0.36682600
H        1.74557100     -1.12393600     -1.58616900
H        2.13765000      0.28888500     -0.61000000

