%chk=ethyl_propiolate.chk
%nprocshared=24
%mem=12GB
# irc=(calcfc,maxpoints=10,maxcycle=900,stepsize=5) 6-311++g(d,p) m062x

Title Card Required

0 2
 O                  2.34553500    1.70211100   -0.32468100
 H                  1.52521200    1.77286300    0.20031900
 C                 -3.31744300    0.18932100   -0.51621000
 H                 -4.33336900    0.26146900   -0.82768800
 C                 -2.17527100    0.10758300   -0.16495000
 C                 -0.79000700    0.05967600    0.27282400
 O                 -0.22816700    0.98735700    0.79766300
 O                 -0.24647800   -1.12491300    0.02745200
 C                  1.12196400   -1.32413100    0.44444600
 C                  2.09970700   -0.84108900   -0.59819200
 H                  1.19483300   -2.40309000    0.57356300
 H                  1.27350400   -0.83464700    1.40753400
 H                  3.10221000   -1.21266700   -0.38283600
 H                  1.79932900   -1.14508400   -1.60166100
 H                  2.19279900    0.26299600   -0.61922200

