%chk=ethyl_propiolate.chk
%nprocshared=24
%mem=12GB
# freq 6-311++g(d,p) m062x

Title Card Required

0 2
 O                  2.34497700    1.69304900   -0.32665200
 H                  1.52631000    1.77284200    0.19895000
 C                 -3.31748300    0.18929800   -0.51623300
 H                 -4.33341600    0.26155400   -0.82766400
 C                 -2.17530900    0.10746600   -0.16504800
 C                 -0.79022200    0.05985200    0.27290900
 O                 -0.22851300    0.98713300    0.79801500
 O                 -0.24615100   -1.12505200    0.02734600
 C                  1.12216400   -1.32258300    0.44385900
 C                  2.09981000   -0.83403800   -0.59603600
 H                  1.19768900   -2.40183600    0.57034000
 H                  1.27324300   -0.83543600    1.40827000
 H                  3.10373700   -1.20352300   -0.38400700
 H                  1.79902300   -1.12308500   -1.60365300
 H                  2.19704300    0.27843300   -0.60305900

