%nprocshared=24
%mem=12GB
%chk=ethyl_propiolate_ts1.chk
# freq 6-31+g m062x

Title Card Required

0 2
O        2.34309200      1.66789400     -0.33159200
H        1.53214000      1.77561300      0.19511300
C       -3.31751000      0.18924300     -0.51625800
H       -4.33348000      0.26183800     -0.82756300
C       -2.17534000      0.10719400     -0.16526700
C       -0.79093900      0.06120300      0.27331600
O       -0.22934600      0.98633700      0.79867400
O       -0.24498500     -1.12599000      0.02710000
C        1.12184500     -1.31799200      0.44255100
C        2.09932200     -0.82258000     -0.59159000
H        1.20617600     -2.39890500      0.56399300
H        1.27438700     -0.83628600      1.40980300
H        3.11274700     -1.16495300     -0.38336900
H        1.79805800     -1.06138900     -1.61120900
H        2.21748800      0.39886400     -0.55474800

