%nprocshared=24
%mem=12GB
%chk=ethyl_propiolate_ts1.chk
# ccsd(t)/6-311++g(d,p) sp

Title Card Required

0 2
O        2.28813600      1.71088700     -0.32185600
H        1.47128000      1.80039300      0.20407900
C       -3.37277100      0.21197800     -0.50700300
H       -4.38873000      0.28303600     -0.81863000
C       -2.23057600      0.13153600     -0.15562000
C       -0.84570600      0.08613100      0.28274500
O       -0.28473200      1.01433600      0.80618100
O       -0.30024300     -1.09943800      0.03949700
C        1.06787200     -1.29341300      0.45609300
C        2.04525000     -0.80158600     -0.58229100
H        1.14692300     -2.37266600      0.58260800
H        1.21849300     -0.80621800      1.42062800
H        3.05155200     -1.16534100     -0.37193900
H        1.74460300     -1.07747200     -1.59347400
H        2.14617400      0.32411300     -0.57739200

