%nprocshared=24
%mem=12GB
%chk=ethyl_propiolate_ts1.chk
# ccsd(t)/6-311++g(d,p) sp

Title Card Required

0 2
O        2.28837900      1.68473200     -0.32065100
H        1.48090200      1.80063100      0.20603800
C       -3.37293700      0.21659200     -0.50600000
H       -4.38888000      0.29057800     -0.81711000
C       -2.23081300      0.13302500     -0.15523300
C       -0.84658000      0.08567100      0.28333200
O       -0.28410800      1.00900600      0.80982600
O       -0.30129200     -1.10234500      0.03532300
C        1.06494800     -1.29484800      0.45023600
C        2.04243800     -0.80235300     -0.58264300
H        1.15017700     -2.37688400      0.56988800
H        1.21872900     -0.81564300      1.41877500
H        3.05923500     -1.13261300     -0.37422200
H        1.74062500     -1.02469500     -1.60532300
H        2.17305500      0.49895300     -0.53219000

