%chk=ethyl_propiolate.chk
%nprocshared=24
%mem=12GB
# irc=(calcfc,maxpoints=10,maxcycle=900,stepsize=5) 6-311++g(d,p) m062x

Title Card Required

0 2
 O                  2.34288700    1.66593000   -0.33192900
 H                  1.53305100    1.77646900    0.19471100
 C                 -3.31750700    0.18924000   -0.51625800
 H                 -4.33348300    0.26186600   -0.82755400
 C                 -2.17533700    0.10717700   -0.16527800
 C                 -0.79099600    0.06136200    0.27336200
 O                 -0.22939800    0.98626300    0.79869600
 O                 -0.24488600   -1.12609200    0.02708400
 C                  1.12176600   -1.31761700    0.44247200
 C                  2.09914900   -0.82318100   -0.59139900
 H                  1.20681900   -2.39884000    0.56374300
 H                  1.27459400   -0.83631200    1.40995000
 H                  3.11386200   -1.16098700   -0.38297100
 H                  1.79778300   -1.05674000   -1.61204600
 H                  2.22103600    0.42437800   -0.55028500

