%nprocshared=24
%mem=12GB
%chk=ethyl_propiolate_ts1.chk
# freq 6-311++g(d,p) m062x

Title Card Required

0 2
O        2.28858600      1.72019800     -0.32191100
H        1.46978500      1.80107000      0.20331800
C       -3.37266300      0.21137600     -0.50731500
H       -4.38861000      0.28181000     -0.81911700
C       -2.23047300      0.13159500     -0.15571100
C       -0.84540800      0.08650800      0.28258500
O       -0.28450100      1.01594800      0.80472200
O       -0.30037200     -1.09876600      0.04098200
C        1.06804200     -1.29385300      0.45832300
C        2.04544400     -0.80795100     -0.58303800
H        1.14439900     -2.37262500      0.58835300
H        1.21860600     -0.80342700      1.42115100
H        3.04963300     -1.17594800     -0.36966400
H        1.74502200     -1.10053800     -1.58974200
H        2.14180300      0.30456700     -0.59369700

