%chk=ethyl_propiolate.chk
%nprocshared=24
%mem=12GB
# freq 6-311++g(d,p) m062x

Title Card Required

0 2
 O                  2.34193000    1.65848800   -0.33310100
 H                  1.53779900    1.78271300    0.19310200
 C                 -3.31749600    0.18922700   -0.51625800
 H                 -4.33349400    0.26195400   -0.82752200
 C                 -2.17532500    0.10711300   -0.16531800
 C                 -0.79121600    0.06192100    0.27352200
 O                 -0.22956200    0.98600000    0.79876000
 O                 -0.24454300   -1.12646900    0.02703200
 C                  1.12150100   -1.31615700    0.44212500
 C                  2.09815200   -0.82879800   -0.59090000
 H                  1.20904700   -2.39875200    0.56327600
 H                  1.27540500   -0.83634100    1.41063400
 H                  3.11872300   -1.14423600   -0.38097900
 H                  1.79633200   -1.03852300   -1.61567700
 H                  2.23958400    0.55510100   -0.53211300

