%nprocshared=24
%mem=12GB
%chk=ethyl_propiolate_ts1.chk
# freq 6-311++g(d,p) m062x

Title Card Required

0 2
O        2.28787000      1.70190800     -0.32165800
H        1.47335200      1.79988500      0.20486100
C       -3.37285800      0.21288700     -0.50668300
H       -4.38882400      0.28468900     -0.81813400
C       -2.23067000      0.13166600     -0.15551600
C       -0.84602000      0.08592100      0.28293200
O       -0.28481500      1.01266300      0.80752100
O       -0.30024800     -1.10026300      0.03805600
C        1.06733900     -1.29326300      0.45401200
C        2.04480700     -0.79745800     -0.58193800
H        1.14904300     -2.37312200      0.57757800
H        1.21862900     -0.80897300      1.41999200
H        3.05404600     -1.15351600     -0.37338300
H        1.74394100     -1.05617800     -1.59732300
H        2.15176100      0.35423200     -0.56177700

