%chk=ethyl_propiolate.chk 
%nprocshared=24 
%mem=12GB 
# ccsd(t)/6-311++g(d,p) sp 

Title Card Required

0 2
 C                 -2.50782200    0.19734000   -1.14784800
 H                 -3.40489700    0.47316100   -1.65698100
 C                 -1.55782000    0.11635800   -0.31026200
 C                 -0.26132200   -0.58801600   -0.02595400
 O                 -0.18665800   -1.66190300    0.49827200
 O                  0.76045300    0.20348300   -0.32044700
 C                  2.05322600   -0.25637300    0.12372900
 C                  3.05828800    0.80257500   -0.26264700
 H                  2.00643200   -0.40956500    1.20385500
 H                  2.25999200   -1.21886500   -0.34829600
 H                  3.06848900    0.94733100   -1.34360200
 H                  2.81562200    1.75248600    0.21470000
 H                  4.05568900    0.49580000    0.05664700
 O                 -1.68717800    1.08067500    1.06385300
 H                 -2.47254900    0.71745600    1.49185400

