%chk=ethyl_propiolate.chk 
%nprocshared=24 
%mem=12GB 
# ccsd(t)/6-311++g(d,p) sp 

Title Card Required

0 2
 C                 -2.51506100    0.20473800   -1.14345200
 H                 -3.40507000    0.46447100   -1.67030700
 C                 -1.54829300    0.07970300   -0.36180700
 C                 -0.25896800   -0.58970000   -0.02649500
 O                 -0.18591700   -1.66178600    0.50062500
 O                  0.76043900    0.20404900   -0.31953300
 C                  2.05317900   -0.25612500    0.12428100
 C                  3.05824700    0.80260400   -0.26260700
 H                  2.00709700   -0.40941900    1.20433800
 H                  2.25928100   -1.21861800   -0.34817300
 H                  3.06830100    0.94726200   -1.34357600
 H                  2.81576900    1.75254700    0.21473300
 H                  4.05561500    0.49564700    0.05658100
 O                 -1.69092600    1.10333200    1.09586500
 H                 -2.47853700    0.72057500    1.50548500

