%chk=ethyl_propiolate.chk 
%nprocshared=24 
%mem=12GB 
# ccsd(t)/6-311++g(d,p) sp 

Title Card Required

0 2
 C                  2.18398200   -0.41232000   -0.06382900
 H                  3.26109400   -0.86054800   -0.12286900
 C                  1.07687700    0.06497600   -0.01803400
 C                 -0.27822400    0.61392400   -0.00357800
 O                 -0.51715000    1.78920900    0.01209400
 O                 -1.19251200   -0.35426900   -0.01012400
 C                 -2.56573300    0.08432100    0.00855300
 C                 -3.42708100   -1.15712900   -0.00408200
 H                 -2.72340300    0.68933800    0.90384100
 H                 -2.73901300    0.71857100   -0.86325200
 H                 -3.23696900   -1.74630500   -0.90195200
 H                 -3.21993200   -1.77609700    0.86963100
 H                 -4.48088400   -0.87377400    0.01060600
 O                  4.50508600   -0.60334800    0.08829900
 H                  4.61419400    0.25108000   -0.36412300

