%chk=ethyl_propiolate.chk 
%nprocshared=24 
%mem=12GB 
# ccsd(t)/6-311++g(d,p) sp 

Title Card Required

0 2
 C                  2.18386800   -0.41189600   -0.06345100
 H                  3.34029400   -0.86486500   -0.12277800
 C                  1.07595100    0.06589200   -0.01783500
 C                 -0.27891800    0.61387500   -0.00370700
 O                 -0.51707300    1.78918500    0.01211100
 O                 -1.19253600   -0.35425700   -0.01012800
 C                 -2.56584000    0.08431400    0.00855400
 C                 -3.42708900   -1.15714000   -0.00408100
 H                 -2.72338700    0.68930200    0.90386500
 H                 -2.73898600    0.71854300   -0.86328200
 H                 -3.23698800   -1.74630200   -0.90195400
 H                 -3.21995300   -1.77608300    0.86964600
 H                 -4.48087600   -0.87377100    0.01060500
 O                  4.50165700   -0.60387100    0.08803300
 H                  4.61072000    0.24873100   -0.36559900

