%chk=ethyl_propiolate.chk 
%nprocshared=24 
%mem=12GB 
# ccsd(t)/6-311++g(d,p) sp 

Title Card Required

0 2
 C                  2.18407800   -0.41207300   -0.06358000
 H                  3.31385900   -0.86255600   -0.12240100
 C                  1.07628200    0.06558000   -0.01790300
 C                 -0.27869100    0.61388700   -0.00366400
 O                 -0.51709700    1.78919200    0.01210500
 O                 -1.19252900   -0.35426100   -0.01012700
 C                 -2.56580500    0.08431600    0.00855300
 C                 -3.42708600   -1.15713700   -0.00408100
 H                 -2.72339200    0.68931300    0.90385700
 H                 -2.73899500    0.71855300   -0.86327200
 H                 -3.23698200   -1.74630300   -0.90195300
 H                 -3.21994500   -1.77608700    0.86964100
 H                 -4.48087900   -0.87377200    0.01060500
 O                  4.50266300   -0.60371900    0.08810000
 H                  4.61181600    0.24956700   -0.36510300

