%chk=ethyl_propiolate.chk 
%nprocshared=24 
%mem=12GB 
# ccsd(t)/6-311++g(d,p) sp 

Title Card Required

0 2
 C                  2.53982600    0.05892500    0.00000100
 H                  3.61073600    0.14975900    0.00000100
 C                  1.43792500    0.65499100   -0.00000300
 C                  0.01424500    0.95184800   -0.00000500
 O                 -0.44038500    2.06058400   -0.00001000
 O                 -0.70317000   -0.17522600    0.00000000
 C                 -2.13705800   -0.00059700   -0.00000100
 C                 -2.75488100   -1.37846400    0.00000500
 H                 -2.41160500    0.57820200    0.88388800
 H                 -2.41160500    0.57819400   -0.88389500
 H                 -2.45307900   -1.93729000   -0.88673800
 H                 -2.45307900   -1.93728300    0.88675300
 H                 -3.84251500   -1.29047700    0.00000500
 O                  2.35845500   -1.74101200    0.00001000
 H                  1.39530700   -1.84548800    0.00001000

