%chk=ethyl_propiolate.chk 
%nprocshared=24 
%mem=12GB 
# ccsd(t)/6-311++g(d,p) sp 

Title Card Required

0 2
 C                  2.58930800    0.31551100    0.00000000
 H                  3.63271000    0.10323600    0.00000100
 C                  1.43306500    0.64394800   -0.00000300
 C                  0.01347300    0.95399700   -0.00000500
 O                 -0.44408500    2.06015800   -0.00001000
 O                 -0.70480200   -0.17554100    0.00000000
 C                 -2.13694200   -0.00055100   -0.00000100
 C                 -2.75562300   -1.37832800    0.00000500
 H                 -2.41254500    0.57825700    0.88364800
 H                 -2.41254500    0.57825000   -0.88365500
 H                 -2.45408600   -1.93726200   -0.88688600
 H                 -2.45408600   -1.93725500    0.88690100
 H                 -3.84327800   -1.29086900    0.00000500
 O                  2.33250900   -1.91877500    0.00001100
 H                  1.35971800   -1.91709100    0.00001000

