%nprocshared=24
%mem=12GB
%chk=ethyl_propiolate_ts1.chk
# ccsd(t)/6-311++g** sp

Title Card Required

0 2
 O                  1.85024600   -1.44493400    0.14254300
 H                  1.00131400   -1.87527300   -0.00979900
 C                  2.62995400    0.77421600    0.25243100
 H                  2.67644500    1.84879000    0.24623600
 C                  1.66107100   -0.10267300    0.08916500
 C                  0.26554800    0.39602200   -0.17039500
 O                 -0.05839100    1.54732900   -0.24516600
 O                 -0.57822500   -0.64129300   -0.31458800
 C                 -1.96532800   -0.32043700   -0.55115400
 C                 -2.66686800    0.03453700    0.74414000
 H                 -2.37710900   -1.22178800   -1.00187200
 H                 -2.00902900    0.49929000   -1.26864700
 H                 -3.72587800    0.21311100    0.54834000
 H                 -2.58158000   -0.78245000    1.46223200
 H                 -2.23946200    0.93950600    1.17608200

