%nprocshared=24
%mem=12GB
%chk=ethyl_propiolate_ts1.chk
# opt=(calcfc,tight,ts,noeigentest) freq 6-311++g(d,p) m062x

Title Card Required

0 2
 O                 -2.07527715    1.37916160   -0.97210997
 H                 -1.98723460    2.16423456   -0.42666617
 C                 -2.76069086   -0.41616679    0.48611055
 H                 -3.53973024   -0.91832096    1.02074952
 C                 -1.77400239    0.21983026   -0.19103099
 C                 -0.32831575   -0.30595649   -0.11934802
 O                 -0.06319444   -1.32616964    0.56799932
 O                  0.61913012    0.30474759   -0.76955456
 C                  1.96155348   -0.18348277   -0.70299154
 C                  2.69283206    0.48446910    0.47627601
 H                  2.47071637    0.04745812   -1.61530697
 H                  1.94876507   -1.24383932   -0.56023142
 H                  3.69730268    0.11914988    0.52608190
 H                  2.70562047    1.54482565    0.33351590
 H                  2.18366917    0.25352820    1.38859144

