%nprocshared=24
%mem=12GB
%chk=ethyl_propiolate_ts1.chk
# opt=(calcfc,tight,noeigentest) freq 6-311++g(d,p) m062x

Title Card Required

0 2
 O                  1.83010000   -1.47168900    0.13151900
 H                  0.97885500   -1.92817800   -0.01836300
 C                  2.67788300    0.73833000    0.26174000
 H                  2.79271800    1.80898200    0.27096800
 C                  1.66667100   -0.09795900    0.08754400
 C                  0.29030300    0.40882300   -0.16747600
 O                 -0.03959400    1.58913800   -0.24308000
 O                 -0.58367100   -0.63064700   -0.31562700
 C                 -2.00048800   -0.31321900   -0.55719900
 C                 -2.69511600    0.02848600    0.74801000
 H                 -2.39284600   -1.22062800   -1.01416100
 H                 -2.04128400    0.51441200   -1.26898100
 H                 -3.76087700    0.19606700    0.56657400
 H                 -2.59158100   -0.79065900    1.46378100
 H                 -2.27518100    0.93882200    1.18197500

