%chk=ethyl_propiolate.chk
%nprocshared=4
%mem=1GB
# ccsd(t)/6-311++g(d,p) sp

Title Card Required

0 2
 C                 -1.84982100   -1.08531700   -0.19233200
 H                 -2.14085000   -2.10981300   -0.40214800
 C                 -0.58804600   -0.66954000   -0.30782300
 C                 -0.09727600    0.67379500   -0.04968500
 O                 -0.87530100    1.53730300    0.30776600
 O                  1.19121100    0.95602200   -0.21471900
 C                  2.09928400   -0.10049700   -0.56535700
 C                  2.54072600   -0.87035200    0.66373100
 H                  1.63075100   -0.75434500   -1.30615000
 H                  2.93708700    0.40997500   -1.03796700
 H                  2.98362200   -0.19201000    1.39425600
 H                  1.69557900   -1.38247800    1.12769300
 H                  3.28543900   -1.61873400    0.38557500
 O                 -2.87698700   -0.32058300    0.18153800
 H                 -2.53222200    0.57694100    0.35085400

