%chk=ethyl_propiolate.chk
%nprocshared=24
%mem=12GB
# opt=(calcfc,tight,ts,noeigentest) freq 6-311++g(d,p) m062x

Title Card Required

0 2
 O                  2.39905889    0.27733026   -0.56363872
 H                  2.76257425    0.92895474    0.04038290
 C                  2.16992408   -1.77922137    0.67631921
 H                  2.61783595   -2.66408758    1.07792444
 C                  1.60262468   -0.65850075    0.16767029
 C                  0.10026790   -0.39277260    0.37722372
 O                 -0.60059422   -1.21630392    1.02077560
 O                 -0.44446917    0.68337221   -0.11119778
 C                 -1.83951450    0.93012040    0.08338863
 C                 -2.63754144    0.30931751   -1.07822954
 H                 -2.01442316    1.98532733    0.11246271
 H                 -2.15397767    0.49088031    1.00701250
 H                 -3.68138655    0.49394728   -0.93262992
 H                 -2.32307827    0.74855761   -2.00185341
 H                 -2.46263278   -0.74588941   -1.10730363

