%chk=ethyl_propiolate.chk
%nprocshared=4
%mem=1GB
# ccsd(t)/6-311++g(d,p) sp

Title Card Required

0 2
 C                 -1.68752700   -0.63565100    1.27093100
 H                 -2.30427600   -1.37133900    1.75783000
 C                 -1.16960600   -0.35962800    0.09922200
 C                 -0.35090300    0.90288200   -0.09781200
 O                 -0.77672000    1.97602700    0.20514200
 O                  0.85366300    0.76713200   -0.66778600
 C                  1.60000800   -0.45380100   -0.52328100
 C                  2.19573900   -0.55390900    0.86792200
 H                  0.97204500   -1.31168700   -0.76368300
 H                  2.37809200   -0.37753900   -1.28133600
 H                  2.80877400    0.32217700    1.08344600
 H                  1.41004500   -0.62594200    1.62342000
 H                  2.82142700   -1.44608900    0.94009000
 O                 -1.29232400   -1.08819800   -1.05665400
 H                 -1.88932000   -1.82862400   -0.90728200

