%chk=ethyl_propiolate.chk
%nprocshared=4
%mem=1GB
# ccsd(t)/6-311++g(d,p) sp

Title Card Required

0 2
 C                 -1.65856200   -1.09757700    0.19853100
 H                 -2.29999100   -1.91719700    0.51823000
 C                 -0.35711800   -1.23192600    0.23160000
 C                  1.02332500   -0.85148500   -0.02735800
 O                  1.79530800   -1.63229200   -0.51394600
 O                  1.44207700    0.36181400    0.37092300
 C                  0.49504000    1.39830600    0.66464000
 C                  0.07594700    2.11025100   -0.60681500
 H                 -0.36394400    0.98528700    1.19844000
 H                  1.02654700    2.06921400    1.33852300
 H                  0.95020000    2.52411500   -1.11111700
 H                 -0.43586000    1.42446900   -1.28402800
 H                 -0.61279600    2.92349300   -0.36878300
 O                 -2.29825600    0.03599800   -0.21549300
 H                 -3.24898700   -0.09894700   -0.18673500

