%chk=ethyl_propiolate.chk
%nprocshared=24
%mem=12GB
# opt=(calcfc,tight,noeigentest) freq 6-31+g m062x

Title Card Required

0 2
 O                  3.41873613   -1.08721759    0.25657862
 H                  2.93257683   -1.67528642   -0.32602261
 C                  2.79923734    0.20162652    0.25803083
 H                  3.38992448    1.07895881    0.42013188
 C                  1.46401300    0.31187592    0.05409927
 C                 -0.05328706    0.43716393   -0.17764074
 O                 -0.59844456    1.57134743   -0.17635006
 O                 -0.77166332   -0.62981659   -0.37479498
 C                 -2.18058529   -0.51347796   -0.58997910
 C                 -2.91387241   -0.58270493    0.76246225
 H                 -2.51289181   -1.31409347   -1.21726467
 H                 -2.39301539    0.42228739   -1.06338871
 H                 -3.96810074   -0.49565435    0.60145036
 H                 -2.70144231   -1.51847029    1.23587185
 H                 -2.58156589    0.21791058    1.38974782

