%chk=ethyl_propiolate_non_planar.chk
%mem=12GB
%nprocshared=24
# opt=(calcfc,tight,ts,noeigentest) freq 6-311++g(d,p) m062x

Title Card Required

0 2
 C                 -2.76107597   -0.42045700    0.47916246
 H                 -3.54064893   -0.92258036    1.01305208
 C                 -1.77371732    0.21550671   -0.19703286
 C                 -0.32728282   -0.30746685   -0.12005303
 O                 -0.06217174   -1.32534700    0.57074845
 O                  0.62080576    0.30320245   -0.76935474
 C                  1.96392414   -0.18241367   -0.69787050
 C                  2.69081943    0.49003104    0.48155366
 H                  2.47512292    0.04699539   -1.60943361
 H                  1.95266542   -1.24240392   -0.55228922
 H                  3.69581010    0.12666792    0.53504187
 H                  2.70207815    1.55002129    0.33597238
 H                  2.17962065    0.26062198    1.39311677
 O                 -2.07497936    1.37219061   -0.98203192
 H                 -1.98982142    2.15888242   -0.43846579

