%chk=ethyl_propiolate_non_planar.chk
%mem=12GB
%nprocshared=24
# opt=(calcfc,tight,noeigentest) freq 6-31+g m062x

Title Card Required

0 2
 C                  2.72007936   -0.51953834   -0.23763186
 H                  3.50573889   -1.15241778   -0.59414654
 C                  1.72500527    0.28202659    0.21390802
 C                  0.26890258   -0.21927305    0.20593119
 O                  0.00305632   -1.37321762   -0.21987188
 O                 -0.68659477    0.55041165    0.63951161
 C                 -2.03869009    0.08491903    0.63210479
 C                 -2.70075864    0.45236969   -0.70888188
 H                 -2.57834541    0.54398775    1.43393273
 H                 -2.05073380   -0.97776198    0.75645919
 H                 -3.71246633    0.10406402   -0.71442404
 H                 -2.68871494    1.51505070   -0.83323628
 H                 -2.16110333   -0.00669903   -1.51070982
 O                  2.02710361    1.59332626    0.69777760
 H                  2.20485731    1.55353711    1.64033818

