%chk=ethyl_propiolate.chk 
%nprocshared=24 
%mem=12GB 
# ccsd(t)/6-311++g(d,p) sp 

Title Card Required

0 2
 C                  2.46881000    1.29464800   -0.67240800
 H                  3.09769600    2.09253200   -0.99293300
 C                  1.76791900    0.39147400   -0.31138800
 C                  0.98532800   -0.75472500    0.15047600
 O                  1.49125200   -1.78415900    0.47477500
 O                 -0.34897700   -0.59201900    0.19422700
 C                 -0.95992700    0.63694800   -0.18805900
 C                 -1.10303500    1.59006700    0.96914900
 H                 -0.47642800    1.05863900   -1.07099700
 H                 -2.01581700    0.31318000   -0.53322600
 H                 -1.62384700    1.10191400    1.79384900
 H                 -0.12064600    1.92211800    1.31593000
 H                 -1.67649800    2.46528900    0.66011900
 O                 -3.16093200   -0.47496200   -0.67953000
 H                 -2.76169300   -1.31066100   -0.38375800

