%chk=ethyl_propiolate.chk 
%nprocshared=24 
%mem=12GB 
# ccsd(t)/6-311++g(d,p) sp 

Title Card Required

0 2
 C                  2.46935500    1.29429300   -0.67214800
 H                  3.09803900    2.09227400   -0.99263500
 C                  1.76870700    0.39107700   -0.31061700
 C                  0.98351400   -0.75501800    0.15166700
 O                  1.49181800   -1.78435500    0.47493500
 O                 -0.34915000   -0.59256600    0.19245400
 C                 -0.94424400    0.65242900   -0.19140600
 C                 -1.09600900    1.59396800    0.97486800
 H                 -0.40768800    1.08593500   -1.03676800
 H                 -1.94660400    0.38752900   -0.57582100
 H                 -1.62588700    1.10018100    1.79060800
 H                 -0.12081600    1.92979700    1.33488600
 H                 -1.67164400    2.46808600    0.66524300
 O                 -3.18714700   -0.49467000   -0.68243300
 H                 -2.75424000   -1.31221800   -0.37900100

