%chk=ethyl_propiolate.chk 
%nprocshared=24 
%mem=12GB 
# ccsd(t)/6-311++g(d,p) sp 

Title Card Required

0 2
 C                  2.46877689    1.29466318   -0.67240824
 H                  3.09766889    2.09256518   -0.99295924
 C                  1.76787489    0.39148218   -0.31141324
 C                  0.98564789   -0.75477382    0.15032376
 O                  1.49115689   -1.78412482    0.47476776
 O                 -0.34923311   -0.59165182    0.19424876
 C                 -0.96024011    0.63586918   -0.18748924
 C                 -1.10381811    1.58967518    0.96870176
 H                 -0.48372911    1.05577618   -1.07496824
 H                 -2.03486011    0.29769818   -0.53239024
 H                 -1.62367911    1.10189818    1.79417476
 H                 -0.12043311    1.92101118    1.31435976
 H                 -1.67672511    2.46522718    0.65990776
 O                 -3.15821611   -0.47303682   -0.67918424
 H                 -2.76286011   -1.31029582   -0.38420424

