%chk=ethyl_propiolate.chk 
%nprocshared=24 
%mem=12GB 
# ccsd(t)/6-311++g(d,p) sp 

Title Card Required

0 2
 C                  1.26138000    2.24953900   -0.05933400
 H                  1.18614200    3.31199100   -0.07416000
 C                  1.35306800    1.05415500   -0.04234400
 C                  1.54535400   -0.39757000    0.00771600
 O                  2.59592100   -0.88335300    0.29935900
 O                  0.48838600   -1.16008600   -0.30154100
 C                 -0.79693100   -0.57133300   -0.56187300
 C                 -1.51242800   -0.26246900    0.73204300
 H                 -0.68543100    0.32012200   -1.18123000
 H                 -1.33128100   -1.32754000   -1.13376400
 H                 -1.66551100   -1.15094800    1.34412500
 H                 -1.04313700    0.53637400    1.30737400
 H                 -2.54127600    0.15447100    0.43377500
 O                 -3.81774000    0.39052800   -0.12208700
 H                 -4.31165500   -0.28649100    0.36900000
 
