%chk=ethyl_propiolate.chk 
%nprocshared=24 
%mem=12GB 
# ccsd(t)/6-311++g(d,p) sp 

Title Card Required

0 2
 C                  1.26124900    2.24953100   -0.05928400
 H                  1.18593100    3.31215600   -0.07439200
 C                  1.35293400    1.05414400   -0.04227300
 C                  1.54624800   -0.39646700    0.00816100
 O                  2.59545800   -0.88359700    0.29912900
 O                  0.48686700   -1.16022400   -0.30031700
 C                 -0.80045900   -0.56994100   -0.56413400
 C                 -1.50812600   -0.26562900    0.73086800
 H                 -0.68653400    0.32126100   -1.18221500
 H                 -1.33284500   -1.32763800   -1.13494400
 H                 -1.70595800   -1.14412600    1.34163700
 H                 -1.10153500    0.57036700    1.29698100
 H                 -2.79974300    0.19902500    0.30941600
 O                 -3.79421200    0.38540200   -0.11178900
 H                 -4.31139100   -0.27724700    0.36306400

