%chk=ethyl_propiolate.chk 
%nprocshared=24 
%mem=12GB 
# ccsd(t)/6-311++g(d,p) sp 

Title Card Required

0 2
 C                  1.26179700    2.24935100   -0.05945500
 H                  1.18668800    3.31174700   -0.07390500
 C                  1.35341100    1.05392200   -0.04261200
 C                  1.54548700   -0.39862100    0.00702500
 O                  2.59685800   -0.88288400    0.29986300
 O                  0.49145100   -1.16123200   -0.30482800
 C                 -0.79406200   -0.57234100   -0.55923200
 C                 -1.48999500   -0.26464600    0.74542000
 H                 -0.68427800    0.31935000   -1.17893500
 H                 -1.33157600   -1.32717600   -1.13027300
 H                 -1.63955100   -1.16360900    1.34366700
 H                 -0.95721400    0.48833800    1.32856000
 H                 -2.46746700    0.19493300    0.51752800
 O                 -3.85224900    0.39627200   -0.13705700
 H                 -4.32336500   -0.29120800    0.36382100

