%chk=ethyl_propiolate.chk 
%nprocshared=24 
%mem=12GB 
# ccsd(t)/6-311++g(d,p) sp 

Title Card Required

0 2
 C                  1.26134700    2.24955000   -0.05931700
 H                  1.18603400    3.31202000   -0.07413400
 C                  1.35304400    1.05416700   -0.04232500
 C                  1.54544300   -0.39740800    0.00778400
 O                  2.59584200   -0.88339800    0.29931400
 O                  0.48806600   -1.16003100   -0.30127700
 C                 -0.79738100   -0.57114700   -0.56221500
 C                 -1.51419100   -0.26230500    0.73098400
 H                 -0.68566100    0.32030700   -1.18140500
 H                 -1.33149400   -1.32751600   -1.13399800
 H                 -1.67036700   -1.14957100    1.34389700
 H                 -1.05312400    0.54173400    1.30535100
 H                 -2.55750200    0.15266400    0.42211500
 O                 -3.81383800    0.38976600   -0.12046500
 H                 -4.31029000   -0.28596400    0.36925000
 
