%chk=ethyl_propiolate.chk 
%nprocshared=24 
%mem=12GB 
# ccsd(t)/6-311++g(d,p) sp 

Title Card Required

0 2
 C                  1.26132657    2.24954891   -0.05930978
 H                  1.18599957    3.31203991   -0.07416778
 C                  1.35302557    1.05416791   -0.04231478
 C                  1.54555657   -0.39726109    0.00783922
 O                  2.59577657   -0.88343509    0.29928122
 O                  0.48782457   -1.16002609   -0.30108878
 C                 -0.79779143   -0.57098309   -0.56252378
 C                 -1.51487243   -0.26235009    0.73041822
 H                 -0.68584543    0.32047091   -1.18152078
 H                 -1.33173243   -1.32749509   -1.13413678
 H                 -1.67500943   -1.14856209    1.34360422
 H                 -1.06090843    0.54607391    1.30389822
 H                 -2.57845443    0.15368691    0.41022822
 O                 -3.81068343    0.38914091   -0.11913178
 H                 -4.30955343   -0.28526609    0.36908522
 
