%chk=ethyl_propiolate.chk 
%nprocshared=24 
%mem=12GB 
# ccsd(t)/6-311++g(d,p) sp 

Title Card Required

0 2
 C                  1.26126000    2.24953300   -0.05928800
 H                  1.18593800    3.31214000   -0.07436500
 C                  1.35294800    1.05414800   -0.04227900
 C                  1.54613900   -0.39659100    0.00810800
 O                  2.59550300   -0.88357400    0.29915100
 O                  0.48697200   -1.16016300   -0.30041000
 C                 -0.79993700   -0.57014900   -0.56389900
 C                 -1.51103000   -0.26455100    0.73022400
 H                 -0.68646800    0.32112800   -1.18206100
 H                 -1.33269800   -1.32757100   -1.13475400
 H                 -1.69992100   -1.14479500    1.34206900
 H                 -1.09484300    0.56620200    1.29807300
 H                 -2.74896200    0.18574200    0.33087500
 O                 -3.79663300    0.38603500   -0.11296400
 H                 -4.30968000   -0.27936300    0.36512300

