%chk=ethyl_propiolate.chk 
%nprocshared=24 
%mem=12GB 
# ccsd(t)/6-311++g(d,p) sp 

Title Card Required

0 2
 C                  1.26130600    2.24954800   -0.05930200
 H                  1.18596500    3.31206000   -0.07420200
 C                  1.35300700    1.05416800   -0.04230400
 C                  1.54567000   -0.39711400    0.00789500
 O                  2.59571100   -0.88347200    0.29924800
 O                  0.48758300   -1.16002100   -0.30090100
 C                 -0.79820200   -0.57081900   -0.56283200
 C                 -1.51555300   -0.26239500    0.72985300
 H                 -0.68603000    0.32063500   -1.18163600
 H                 -1.33197100   -1.32747400   -1.13427500
 H                 -1.67965200   -1.14755300    1.34331100
 H                 -1.06869200    0.55041400    1.30244600
 H                 -2.59940600    0.15471000    0.39834100
 O                 -3.80752900    0.38851500   -0.11779900
 H                 -4.30881700   -0.28456900    0.36892000

