%chk=ethyl_propiolate.chk 
%nprocshared=24 
%mem=12GB 
# ccsd(t)/6-311++g(d,p) sp 

Title Card Required

0 2
 C                  1.26161800    2.24944800   -0.05941000
 H                  1.18648200    3.31185700   -0.07400100
 C                  1.35325100    1.05403400   -0.04248300
 C                  1.54529400   -0.39827100    0.00732700
 O                  2.59645700   -0.88307000    0.29964500
 O                  0.49027200   -1.16070000   -0.30337600
 C                 -0.79496300   -0.57209400   -0.56025400
 C                 -1.49905600   -0.26390600    0.73976200
 H                 -0.68450000    0.31946800   -1.17995900
 H                 -1.33098200   -1.32747200   -1.13194300
 H                 -1.64661700   -1.15886500    1.34420400
 H                 -0.98937800    0.50699500    1.31981300
 H                 -2.49017400    0.17754400    0.48778500
 O                 -3.83916800    0.39426800   -0.13121200
 H                 -4.31938100   -0.28920400    0.36597100

