%chk=ethyl_propiolate.chk 
%nprocshared=24 
%mem=12GB 
# ccsd(t)/6-311++g(d,p) sp 

Title Card Required

0 2
 C                  1.26124300    2.24953100   -0.05928300
 H                  1.18592900    3.31216200   -0.07440700
 C                  1.35292700    1.05414400   -0.04226900
 C                  1.54629600   -0.39640700    0.00818700
 O                  2.59543700   -0.88360900    0.29911900
 O                  0.48682400   -1.16025800   -0.30027600
 C                 -0.80074300   -0.56982500   -0.56423700
 C                 -1.50632800   -0.26627400    0.73128800
 H                 -0.68657100    0.32134000   -1.18230400
 H                 -1.33292600   -1.32767900   -1.13504900
 H                 -1.70925700   -1.14373600    1.34138200
 H                 -1.10509000    0.57255900    1.29638300
 H                 -2.82483700    0.20617000    0.29888200
 O                 -3.79320900    0.38511100   -0.11127100
 H                 -4.31265800   -0.27604500    0.36181700
 

