%nprocshared=4
%mem=150MW
%chk=ethyl_propiolate.chk
# irc=(calcfc,maxpoints=10,maxcycle=900,stepsize=5) 6-311++g(d,p) geom=connectivity m062x

Title Card Required

0 2
 C                  2.34403100   -1.18118300    0.00000500
 H                  3.16649600   -1.86072200    0.00000700
 C                  1.21535700   -0.72651700    0.00000500
 C                  0.09218300    0.19776100    0.00000500
 O                  0.24944500    1.39026200    0.00000900
 O                 -1.07937100   -0.42325100   -0.00000100
 C                 -2.24097300    0.43382100   -0.00000200
 C                 -3.45551900   -0.46410500   -0.00000500
 H                 -2.19698500    1.07301800    0.88393700
 H                 -2.19698100    1.07302000   -0.88393900
 H                 -3.46405900   -1.09964700   -0.88622000
 H                 -3.46406200   -1.09964900    0.88620800
 H                 -4.36082100    0.14516200   -0.00000600
 O                  3.56450300    0.41731200   -0.00001200
 H                  2.90931500    1.13556300   -0.00000700

 1 2 1.0 3 3.0
 2
 3 4 1.0
 4 5 2.0 6 1.5
 5
 6 7 1.0
 7 8 1.0 9 1.0 10 1.0
 8 11 1.0 12 1.0 13 1.0
 9
 10
 11
 12
 13
 14 15 1.0
 15

