%nprocshared=4
%mem=150MW
%chk=ethyl_propiolate.chk
# opt=(calcfc,tight,ts,noeigentest) freq 6-311++g(d,p) m062x

Title Card Required

0 2
 C                  2.37270800   -1.18864400   -0.00000300
 H                  3.23176900   -1.82541100   -0.00000400
 C                  1.21456800   -0.79893000   -0.00000400
 C                  0.10708000    0.14587700   -0.00000500
 O                  0.28967900    1.34166700   -0.00000100
 O                 -1.08237600   -0.44670700   -0.00001200
 C                 -2.21256200    0.44708900   -0.00001000
 C                 -3.45669000   -0.41270200    0.00001800
 H                 -2.14881500    1.08786600    0.88414000
 H                 -2.14883900    1.08783800   -0.88418300
 H                 -3.48345100   -1.04986900   -0.88714400
 H                 -3.48343300   -1.04983600    0.88720500
 H                 -4.34592300    0.22278600    0.00001500
 O                  3.47901300    0.50785300    0.00001300
 H                  2.73754300    1.14798000    0.00000400

