%nprocshared=4
%mem=150MW
%chk=ethyl_propiolate.chk
# opt=(calcfc,tight,ts,noeigentest) freq 6-311++g(d,p) m062x

Title Card Required

0 2
 C                  2.28705600    1.46202200    0.42317400
 H                  3.07054200    2.18129400    0.52155900
 C                  1.48608100    0.56882900    0.19710100
 C                  0.28423500   -0.26790800    0.33762000
 O                  0.30834800   -1.39939900    0.74957700
 O                 -0.80951700    0.39535400   -0.02835800
 C                 -2.03611200   -0.35182400    0.07494500
 C                 -3.14773400    0.55433800   -0.40472000
 H                 -1.94397900   -1.25631500   -0.53315900
 H                 -2.16933600   -0.65990800    1.11621500
 H                 -3.20260400    1.45491100    0.21169700
 H                 -2.97824100    0.85276700   -1.44207300
 H                 -4.10550900    0.03101700   -0.34387800
 O                  2.43374600   -0.63414900   -1.08525200
 H                  2.62735600   -1.29096100   -0.38681300

