%nprocshared=4
%mem=150MW
%chk=ethyl_propiolate.chk
# ccsd(t)/6-311++g(d,p) sp

Title Card Required

0 2
 C                 -2.59079800    0.19275000   -1.13288100
 H                 -3.48074200    0.44917100   -1.65962600
 C                 -1.59768200   -0.01607400   -0.46318300
 C                 -0.32545900   -0.61510400   -0.02725100
 O                 -0.25157400   -1.68357800    0.50825700
 O                  0.69322900    0.18263500   -0.31483300
 C                  1.98532100   -0.27820200    0.12801000
 C                  2.99074100    0.78013200   -0.25968900
 H                  1.94143300   -0.43226700    1.20802900
 H                  2.19073200   -1.24069600   -0.34500400
 H                  3.00030800    0.92474600   -1.34065000
 H                  2.74871800    1.73029900    0.21751400
 H                  3.98818100    0.47313200    0.05923700
 O                 -1.76697000    1.12633000    1.16306900
 H                 -2.55884200    0.71150700    1.53851100

