%chk=ethyl_propiolate.chk 
%nprocshared=24 
%mem=12GB 
# ccsd(t)/6-311++g(d,p) sp 

Title Card Required

0 2
 C                 -1.64059500   -0.31011700   -0.05007900
 H                 -3.12319900   -1.07416400    0.13926300
 C                 -0.61386400    0.32725500   -0.03577100
 C                  0.65797800    1.05017500    0.02344900
 O                  0.68846400    2.19920100    0.34798800
 O                  1.75783700    0.38066100   -0.31784200
 C                  1.71398500   -1.02701900   -0.61527200
 C                  1.76745300   -1.85138300    0.65542600
 H                  0.82598000   -1.25085700   -1.20904900
 H                  2.59529700   -1.19187500   -1.23295500
 H                  2.65385300   -1.59302900    1.23627200
 H                  0.88145200   -1.68197500    1.26946300
 H                  1.81128000   -2.91317600    0.40506000
 O                 -3.96138900   -0.61626500   -0.08633400
 H                 -4.04385400    0.10466500    0.54928500

