%chk=ethyl_propiolate.chk 
%nprocshared=24 
%mem=12GB 
# ccsd(t)/6-311++g(d,p) sp 

Title Card Required

0 2
 C                 -1.65432000   -0.31401800   -0.04336400
 H                 -2.69723000   -0.84496100   -0.00192500
 C                 -0.62304500    0.31632000   -0.03509200
 C                  0.65169500    1.04899100    0.02212400
 O                  0.68758600    2.19797100    0.34806600
 O                  1.75582800    0.38047000   -0.31775900
 C                  1.71382200   -1.02687100   -0.61526800
 C                  1.76748600   -1.85148600    0.65532200
 H                  0.82613200   -1.25194200   -1.20902900
 H                  2.59544400   -1.19145600   -1.23278100
 H                  2.65383500   -1.59288700    1.23620600
 H                  0.88131700   -1.68194600    1.26903400
 H                  1.81148300   -2.91334600    0.40505800
 O                 -3.96112800   -0.61910800   -0.08044000
 H                 -4.07731300    0.13581000    0.52247300

