%chk=ethyl_propiolate.chk 
%nprocshared=24 
%mem=12GB 
# ccsd(t)/6-311++g(d,p) sp 

Title Card Required

0 2
 C                 -1.65443100   -0.31403700   -0.04352200
 H                 -2.72350100   -0.84656700   -0.00036100
 C                 -0.62279900    0.31672200   -0.03507900
 C                  0.65197000    1.04899200    0.02215200
 O                  0.68755000    2.19796200    0.34805700
 O                  1.75584900    0.38048500   -0.31775800
 C                  1.71382000   -1.02688900   -0.61526800
 C                  1.76748600   -1.85148200    0.65532300
 H                  0.82610900   -1.25191200   -1.20904000
 H                  2.59542200   -1.19142900   -1.23280600
 H                  2.65384000   -1.59289400    1.23620100
 H                  0.88131700   -1.68198300    1.26904800
 H                  1.81147400   -2.91333100    0.40504100
 O                 -3.95984600   -0.61924700   -0.08045800
 H                 -4.07600100    0.13506300    0.52276200

