%chk=ethyl_propiolate.chk 
%nprocshared=24 
%mem=12GB 
# ccsd(t)/6-311++g(d,p) sp 

Title Card Required

0 2
 C                 -1.65121400   -0.31308700   -0.04495600
 H                 -2.90282600   -0.88803700    0.02068000
 C                 -0.62036700    0.32004600   -0.03506400
 C                  0.65394900    1.04911500    0.02241700
 O                  0.68738600    2.19798100    0.34801400
 O                  1.75607100    0.38059300   -0.31775400
 C                  1.71381800   -1.02698800   -0.61528500
 C                  1.76749200   -1.85146000    0.65530600
 H                  0.82600400   -1.25166900   -1.20914600
 H                  2.59528500   -1.19129200   -1.23296100
 H                  2.65385500   -1.59295700    1.23617300
 H                  0.88135000   -1.68223000    1.26917200
 H                  1.81143400   -2.91323700    0.40491000
 O                 -3.95495000   -0.61959300   -0.08101300
 H                 -4.06697800    0.12776700    0.52596200

