%chk=ethyl_propiolate.chk 
%nprocshared=24 
%mem=12GB 
# ccsd(t)/6-311++g(d,p) sp 

Title Card Required

0 2
 C                 -1.65413300   -0.31391300   -0.04384600
 H                 -2.77602600   -0.85272000    0.00324800
 C                 -0.62224800    0.31754100   -0.03505900
 C                  0.65249800    1.04900700    0.02220900
 O                  0.68748600    2.19794600    0.34804000
 O                  1.75588700    0.38051600   -0.31775600
 C                  1.71381600   -1.02692300   -0.61527000
 C                  1.76748600   -1.85147400    0.65532400
 H                  0.82607200   -1.25185500   -1.20906700
 H                  2.59537900   -1.19138000   -1.23285200
 H                  2.65384500   -1.59290800    1.23619400
 H                  0.88132000   -1.68205400    1.26908100
 H                  1.81145700   -2.91330200    0.40501000
 O                 -3.95769500   -0.61947400   -0.08051400
 H                 -4.07355900    0.13340800    0.52332900

