%nprocshared=24
%mem=12GB
%chk=ethyl_propiolate_ts1.chk
# freq 6-31+g m062x

Title Card Required

0 2
O        4.50140400     -0.26652200      0.33343200
H        4.54832800      0.64044600     -0.01485700
C        2.20419500     -0.32530600     -0.06536000
H        3.35520800     -0.63517700     -0.04286000
C        1.04526500      0.01092200     -0.09440100
C       -0.36390400      0.39011100     -0.17673600
O       -0.75205900      1.51851100     -0.05077800
O       -1.13440400     -0.67026100     -0.41239500
C       -2.55319500     -0.41965400     -0.49766400
C       -3.16815700     -0.29735200      0.88254900
H       -2.94024200     -1.28236600     -1.03676700
H       -2.71346900      0.48243400     -1.08918200
H       -4.25008800     -0.18371300      0.79119300
H       -2.96291200     -1.19266400      1.47114800
H       -2.77373100      0.57458100      1.40455600
