%nprocshared=24
%mem=12GB
%chk=ethyl_propiolate_ts1.chk
# freq 6-311++g(d,p) m062x

Title Card Required

0 2
O        4.56164100     -0.25678700      0.32036700
H        4.60923500      0.64895100     -0.02898000
C        2.26608700     -0.31344600     -0.07744800
H        3.46985600     -0.62192200     -0.04985600
C        1.10695300      0.02370900     -0.10650200
C       -0.30171800      0.40313700     -0.18899500
O       -0.68869600      1.53184900     -0.06302200
O       -1.07245700     -0.65673800     -0.42424900
C       -2.49116000     -0.40531800     -0.50938100
C       -3.10580400     -0.28241100      0.87089800
H       -2.87872200     -1.26789200     -1.04829600
H       -2.65090200      0.49675400     -1.10105900
H       -4.18766600     -0.16814000      0.77964500
H       -2.90103400     -1.17774700      1.45961600
H       -2.71082700      0.58938000      1.39273000

