%nprocshared=24
%mem=12GB
%chk=ethyl_propiolate_ts1.chk
# ccsd(t)/6-311++g(d,p) sp

Title Card Required

0 2
O        4.56280200     -0.25674000      0.32059400
H        4.61039100      0.64954300     -0.02844600
C        2.26652100     -0.31373800     -0.07750700
H        3.44363600     -0.62291100     -0.05221500
C        1.10753200      0.02336500     -0.10656700
C       -0.30127000      0.40315300     -0.18898400
O       -0.68842300      1.53188400     -0.06329100
O       -1.07228300     -0.65675600     -0.42410400
C       -2.49094600     -0.40525800     -0.50927100
C       -3.10560700     -0.28206800      0.87098500
H       -2.87859600     -1.26790700     -1.04802300
H       -2.65067400      0.49672100     -1.10109700
H       -4.18747100     -0.16775100      0.77972700
H       -2.90087800     -1.17730800      1.45986700
H       -2.71055900      0.58979200      1.39264500

