%nprocshared=24
%mem=12GB
%chk=ethyl_propiolate_ts1.chk
# freq 6-31+g m062x

Title Card Required

0 2
O        4.49966900     -0.26658300      0.33648300
H        4.53228900      0.62296900     -0.03773800
C        2.19378500     -0.32291400     -0.06315800
H        3.70126000     -0.70458100     -0.09516700
C        1.03681800      0.01594400     -0.09286700
C       -0.36793600      0.38996000     -0.17813700
O       -0.75236800      1.51884500     -0.05062400
O       -1.13516200     -0.67037400     -0.41260000
C       -2.55395800     -0.41985400     -0.49776500
C       -3.16820900     -0.29736700      0.88258700
H       -2.94086100     -1.28252900     -1.03682200
H       -2.71381400      0.48219800     -1.08943100
H       -4.25008600     -0.18368500      0.79129100
H       -2.96301500     -1.19266600      1.47117000
H       -2.77387700      0.57461100      1.40459800
