%chk=ethyl_propiolate.chk
%nprocshared=24
%mem=12GB
# irc=(calcfc,maxpoints=10,maxcycle=900,stepsize=5) 6-311++g(d,p) m062x

Title Card Required

0 2
 O                  4.50214000   -0.26550100    0.33943200
 H                  4.52744600    0.61625100   -0.05085500
 C                  2.19032800   -0.32205900   -0.06183900
 H                  3.78327400   -0.74658800   -0.14290000
 C                  1.03402900    0.01716500   -0.09237600
 C                 -0.36917300    0.39026300   -0.17853700
 O                 -0.75305100    1.51921900   -0.05061200
 O                 -1.13578800   -0.67046300   -0.41277200
 C                 -2.55430800   -0.41996700   -0.49782900
 C                 -3.16829400   -0.29736700    0.88260800
 H                 -2.94146000   -1.28258500   -1.03681600
 H                 -2.71421800    0.48211500   -1.08946000
 H                 -4.25018500   -0.18365400    0.79149800
 H                 -2.96302200   -1.19265200    1.47119600
 H                 -2.77382300    0.57461000    1.40450900

