%chk=ethyl_propiolate.chk
%nprocshared=24
%mem=12GB
# ccsd(t)/6-311++g(d,p) sp

Title Card Required

0 2
 O                  4.49693630   -0.26760206    0.33353808
 H                  4.53933130    0.63068194   -0.02457792
 C                  2.19887430   -0.32382306   -0.06424492
 H                  3.58956530   -0.65729606   -0.04872692
 C                  1.04068830    0.01382794   -0.09359092
 C                 -0.36620270    0.38987994   -0.17750392
 O                 -0.75199370    1.51856694   -0.05068592
 O                 -1.13465370   -0.67028206   -0.41246592
 C                 -2.55358370   -0.41973306   -0.49770792
 C                 -3.16816170   -0.29737406    0.88256408
 H                 -2.94041070   -1.28242806   -1.03683392
 H                 -2.71353970    0.48232594   -1.08932992
 H                 -4.25004570   -0.18371706    0.79117908
 H                 -2.96298470   -1.19270106    1.47112208
 H                 -2.77385670    0.57457294    1.40464908

