%nprocshared=24
%mem=12GB
%chk=ethyl_propiolate_ts1.chk
# freq 6-311++g(d,p) m062x

Title Card Required

0 2
O        4.56089800     -0.24742000      0.32903000
H        4.58894600      0.63743600     -0.05504100
C        2.25206700     -0.30680800     -0.07220800
H        3.80311400     -0.70851900     -0.12659700
C        1.09518100      0.03124100     -0.10345300
C       -0.30905600      0.40325900     -0.19057300
O       -0.69417900      1.53213300     -0.06547800
O       -1.07489400     -0.65844300     -0.42282900
C       -2.49375600     -0.40937900     -0.50904000
C       -3.10850600     -0.28431500      0.87084400
H       -2.87979500     -1.27356600     -1.04629500
H       -2.65419200      0.49122900     -1.10275700
H       -4.19045300     -0.17178100      0.77896400
H       -2.90271300     -1.17811700      1.46149500
H       -2.71508900      0.58917100      1.39101900

