%nprocshared=24
%mem=12GB
%chk=ethyl_propiolate_ts1.chk
# freq 6-31+g m062x

Title Card Required

0 2
O        4.50031500     -0.26634100      0.33718000
H        4.53096400      0.62129500     -0.04087800
C        2.19282700     -0.32271000     -0.06286500
H        3.72242800     -0.71469900     -0.10621400
C        1.03606600      0.01630700     -0.09273100
C       -0.36827100      0.39001400     -0.17825400
O       -0.75250300      1.51892700     -0.05061600
O       -1.13530200     -0.67039800     -0.41263900
C       -2.55404200     -0.41988200     -0.49778000
C       -3.16822400     -0.29736700      0.88259200
H       -2.94099100     -1.28254500     -1.03682300
H       -2.71389700      0.48217600     -1.08944200
H       -4.25010200     -0.18367900      0.79133200
H       -2.96301700     -1.19266400      1.47117600
H       -2.77386800      0.57461200      1.40458100

