%chk=ethyl_propiolate.chk
%nprocshared=24
%mem=12GB
# freq 6-311++g(d,p) m062x

Title Card Required

0 2
 O                  4.50244100   -0.26542200    0.33992300
 H                  4.52671400    0.61440000   -0.05400500
 C                  2.18948000   -0.32176400   -0.06144000
 H                  3.80724900   -0.75412400   -0.15150900
 C                  1.03340500    0.01739000   -0.09228200
 C                 -0.36944600    0.39035700   -0.17862000
 O                 -0.75325500    1.51931700   -0.05061500
 O                 -1.13595100   -0.67048100   -0.41282200
 C                 -2.55439400   -0.41999700   -0.49784800
 C                 -3.16831500   -0.29737300    0.88261200
 H                 -2.94161900   -1.28259700   -1.03681700
 H                 -2.71433300    0.48209500   -1.08946300
 H                 -4.25021000   -0.18365000    0.79156200
 H                 -2.96301600   -1.19265400    1.47119800
 H                 -2.77379700    0.57460100    1.40448200

