%nprocshared=24
%mem=12GB
%chk=ethyl_propiolate_ts1.chk
# ccsd(t)/6-311++g(d,p) sp

Title Card Required

0 2
O        4.55829300     -0.25620100      0.32016700
H        4.60464600      0.64626400     -0.03192000
C        2.26313700     -0.31202500     -0.07704300
H        3.57540500     -0.62631700     -0.04737500
C        1.10428400      0.02533800     -0.10612100
C       -0.30360100      0.40310100     -0.18913100
O       -0.68991200      1.53175900     -0.06234600
O       -1.07316100     -0.65678400     -0.42459300
C       -2.49201200     -0.40576400     -0.50966900
C       -3.10659500     -0.28360900      0.87065800
H       -2.87919100     -1.26821800     -1.04897800
H       -2.65185000      0.49649700     -1.10101700
H       -4.18846500     -0.16959900      0.77938900
H       -2.90162500     -1.17914200      1.45898700
H       -2.71195200      0.58808100      1.39291700

