%chk=ethyl_propiolate.chk
%nprocshared=24
%mem=12GB
# ccsd(t)/6-311++g(d,p) sp

Title Card Required

0 2
 O                  4.49718900   -0.26764800    0.33267200
 H                  4.54382900    0.63577800   -0.01856900
 C                  2.20238400   -0.32455400   -0.06480000
 H                  3.48749600   -0.63530000   -0.03396600
 C                  1.04324100    0.01228800   -0.09404200
 C                 -0.36502400    0.38995100   -0.17709400
 O                 -0.75195400    1.51849400   -0.05073600
 O                 -1.13446600   -0.67025500   -0.41241600
 C                 -2.55337300   -0.41968600   -0.49768000
 C                 -3.16815000   -0.29736000    0.88255600
 H                 -2.94026500   -1.28240200   -1.03679200
 H                 -2.71347300    0.48237300   -1.08926900
 H                 -4.25005200   -0.18370900    0.79116900
 H                 -2.96294700   -1.19267100    1.47114400
 H                 -2.77380500    0.57458800    1.40460900

