%nprocshared=24
%mem=12GB
%chk=ethyl_propiolate_ts1.chk
# freq 6-31+g m062x

Title Card Required

0 2
O        4.49722500     -0.26748700      0.33394600
H        4.53803500      0.62926100     -0.02661800
C        2.19786000     -0.32363600     -0.06406900
H        3.61378600     -0.66508600     -0.05525600
C        1.03994100      0.01426400     -0.09345600
C       -0.36653700      0.38987100     -0.17762500
O       -0.75202600      1.51860000     -0.05067300
O       -1.13472400     -0.67029500     -0.41248400
C       -2.55364700     -0.41975100     -0.49771700
C       -3.16816700     -0.29737500      0.88256700
H       -2.94046800     -1.28244100     -1.03683900
H       -2.71357000      0.48230700     -1.08934900
H       -4.25004700     -0.18371500      0.79118800
H       -2.96299300     -1.19270200      1.47112400
H       -2.77386700      0.57457500      1.40465100

