%chk=ethyl_propiolate.chk
%nprocshared=24
%mem=12GB
# ccsd(t)/6-311++g(d,p) sp

Title Card Required

0 2
 O                  4.49849700   -0.26730400    0.33283400
 H                  4.54557300    0.63782000   -0.01690700
 C                  2.20349300   -0.32488300   -0.06501200
 H                  3.43432200   -0.63277900   -0.03554100
 C                  1.04414500    0.01170300   -0.09419700
 C                 -0.36456200    0.39000700   -0.17694300
 O                 -0.75198600    1.51849500   -0.05075400
 O                 -1.13443300   -0.67025500   -0.41240500
 C                 -2.55329800   -0.41967200   -0.49767300
 C                 -3.16815200   -0.29735600    0.88255300
 H                 -2.94024800   -1.28238800   -1.03678200
 H                 -2.71346700    0.48239700   -1.08923500
 H                 -4.25006600   -0.18371000    0.79117600
 H                 -2.96293300   -1.19266700    1.47114600
 H                 -2.77377700    0.57458600    1.40458900

