%chk=ethyl_propiolate.chk
%nprocshared=24
%mem=12GB
# freq 6-311++g(d,p) m062x

Title Card Required

0 2
 O                  4.49934300   -0.26707700    0.33299300
 H                  4.54644300    0.63874700   -0.01619800
 C                  2.20387400   -0.32503600   -0.06512100
 H                  3.40782200   -0.63280000   -0.03742900
 C                  1.04454300    0.01143500   -0.09426600
 C                 -0.36434300    0.39003800   -0.17687300
 O                 -0.75200800    1.51849900   -0.05076200
 O                 -1.13442200   -0.67025600   -0.41240100
 C                 -2.55326300   -0.41966600   -0.49767000
 C                 -3.16815400   -0.29735400    0.88255200
 H                 -2.94024400   -1.28238100   -1.03677700
 H                 -2.71346700    0.48240900   -1.08921800
 H                 -4.25007300   -0.18371100    0.79118100
 H                 -2.96292600   -1.19266600    1.47114700
 H                 -2.77376200    0.57458500    1.40457800

