%chk=ethyl_propiolate.chk
%nprocshared=24
%mem=12GB
# ccsd(t)/6-311++g(d,p) sp

Title Card Required

0 2
 O                  4.49656900   -0.26777600    0.33284200
 H                  4.54182500    0.63340700   -0.02092600
 C                  2.20084900   -0.32420300   -0.06456500
 H                  3.54018700   -0.64291100   -0.03741300
 C                  1.04212000    0.01298400   -0.09384600
 C                 -0.36555900    0.38990500   -0.17727400
 O                 -0.75194900    1.51851300   -0.05071300
 O                 -1.13453200   -0.67026200   -0.41243400
 C                 -2.55346500   -0.41970500   -0.49769100
 C                 -3.16815400   -0.29736600    0.88255900
 H                 -2.94031200   -1.28241900   -1.03680400
 H                 -2.71349400    0.48234600   -1.08930400
 H                 -4.25004500   -0.18370700    0.79116800
 H                 -2.96296500   -1.19267800    1.47114200
 H                 -2.77383400    0.57458800    1.40462600

