%nprocshared=24
%mem=12GB
%chk=ethyl_propiolate_ts1.chk
# freq 6-311++g(d,p) m062x

Title Card Required

0 2
O        4.55836200     -0.25273100      0.32319700
H        4.59707400      0.64218400     -0.04074600
C        2.25753800     -0.30958700     -0.07533900
H        3.69758300     -0.65987500     -0.07497500
C        1.09979200      0.02829700     -0.10499800
C       -0.30634700      0.40310900     -0.18971300
O       -0.69181500      1.53184400     -0.06311200
O       -1.07400600     -0.65735300     -0.42409600
C       -2.49296300     -0.40718400     -0.50953300
C       -3.10755800     -0.28435700      0.87066500
H       -2.87954400     -1.27019500     -1.04830400
H       -2.65302600      0.49458000     -1.10157200
H       -4.18945500     -0.17097500      0.77916500
H       -2.90222200     -1.17937500      1.45962900
H       -2.71350700      0.58791700      1.39239800

