%nprocshared=24
%mem=12GB
%chk=ethyl_propiolate_ts1.chk
# ccsd(t)/6-311++g(d,p) sp

Title Card Required

0 2
O        4.56176400     -0.24511300      0.33166300
H        4.58625500      0.63544100     -0.06137200
C        2.25023100     -0.30560700     -0.07064100
H        3.84371000     -0.72854100     -0.14953600
C        1.09355600      0.03217900     -0.10284600
C       -0.31003100      0.40337800     -0.19091100
O       -0.69528300      1.53228300     -0.06672600
O       -1.07529400     -0.65896500     -0.42222300
C       -2.49405800     -0.41038100     -0.50880800
C       -3.10891400     -0.28416900      0.87091600
H       -2.87992700     -1.27513200     -1.04529300
H       -2.65470000      0.48965700     -1.10334700
H       -4.19088800     -0.17199600      0.77888300
H       -2.90291600     -1.17736700      1.46241400
H       -2.71572800      0.58989500      1.39028900

