%nprocshared=24
%mem=12GB
%chk=ethyl_propiolate_ts1.chk
# freq 6-311++g(d,p) m062x

Title Card Required

0 2
O        4.55778800     -0.25508000      0.32113100
H        4.60186800      0.64473500     -0.03453600
C        2.26102200     -0.31111700     -0.07642000
H        3.62644200     -0.63676600     -0.05419700
C        1.10260600      0.02641400     -0.10572500
C       -0.30465600      0.40306800     -0.18938200
O       -0.69062200      1.53175500     -0.06269800
O       -1.07348800     -0.65700400     -0.42444700
C       -2.49239700     -0.40629200     -0.50969800
C       -3.10702100     -0.28388200      0.87056200
H       -2.87932600     -1.26894900     -1.04882800
H       -2.65228600      0.49578600     -1.10131000
H       -4.18889600     -0.17010700      0.77917100
H       -2.90193900     -1.17923200      1.45912100
H       -2.71261200      0.58801800      1.39264800

