%nprocshared=24
%mem=12GB
%chk=ethyl_propiolate_ts1.chk
# ccsd(t)/6-311++g(d,p) sp

Title Card Required

0 2
O        4.56128200     -0.24638100      0.33020500
H        4.58761200      0.63637700     -0.05809700
C        2.25106500     -0.30620600     -0.07148300
H        3.82470300     -0.71756500     -0.13683500
C        1.09433000      0.03173300     -0.10316300
C       -0.30956600      0.40331600     -0.19073100
O       -0.69472100      1.53220200     -0.06598400
O       -1.07510000     -0.65867600     -0.42258400
C       -2.49391900     -0.40984000     -0.50895200
C       -3.10870900     -0.28431100      0.87086800
H       -2.87987200     -1.27426400     -1.04589000
H       -2.65445200      0.49053100     -1.10300800
H       -4.19066800     -0.17194700      0.77892300
H       -2.90281500     -1.17786000      1.46186700
H       -2.71540400      0.58942100      1.39071200

