%nprocshared=24
%mem=12GB
%chk=ethyl_propiolate_ts1.chk
# ccsd(t)/6-311++g(d,p) sp

Title Card Required

0 2
O        4.55890100     -0.25649400      0.32006800
H        4.60585800      0.64698900     -0.03098300
C        2.26403500     -0.31242200     -0.07719000
H        3.54902900     -0.62367400     -0.04655000
C        1.10502100      0.02487700     -0.10624600
C       -0.30310600      0.40310600     -0.18907800
O       -0.68958400      1.53177200     -0.06243900
O       -1.07298300     -0.65675000     -0.42455200
C       -2.49180100     -0.40561100     -0.50962300
C       -3.10639400     -0.28334300      0.87070000
H       -2.87908100     -1.26806000     -1.04888200
H       -2.65160800      0.49663800     -1.10100200
H       -4.18826100     -0.16925100      0.77944400
H       -2.90148200     -1.17886000      1.45907500
H       -2.71165900      0.58833900      1.39290200

