%nprocshared=24
%mem=12GB
%chk=ethyl_propiolate_ts1.chk
# ccsd(t)/6-311++g(d,p) sp

Title Card Required

0 2
O        4.56552400     -0.25643900      0.32119400
H        4.61290700      0.65068300     -0.02741400
C        2.26683400     -0.31422900     -0.07762800
H        3.39177300     -0.62733200     -0.05834900
C        1.10862100      0.02270700     -0.10669300
C       -0.30037100      0.40320300     -0.18897600
O       -0.68790700      1.53196100     -0.06393600
O       -1.07193200     -0.65681500     -0.42374700
C       -2.49051900     -0.40518800     -0.50900400
C       -3.10521800     -0.28132600      0.87119900
H       -2.87833700     -1.26802900     -1.04736200
H       -2.65023100      0.49655900     -1.10119800
H       -4.18708200     -0.16693900      0.77992200
H       -2.90055800     -1.17632800      1.46047900
H       -2.71003200      0.59071700      1.39244400

