%nprocshared=24
%mem=12GB
%chk=ethyl_propiolate_ts1.chk
# ccsd(t)/6-311++g(d,p) sp

Title Card Required

0 2
O        4.55987400     -0.24963200      0.32653500
H        4.59203800      0.63941100     -0.04893400
C        2.25412500     -0.30795300     -0.07360100
H        3.76184400     -0.68873300     -0.10469500
C        1.09695700      0.03014700     -0.10407700
C       -0.30800700      0.40317300     -0.19022500
O       -0.69316900      1.53199900     -0.06440300
O       -1.07451900     -0.65796600     -0.42338100
C       -2.49344800     -0.40844400     -0.50925400
C       -3.10812000     -0.28438700      0.87077100
H       -2.87968300     -1.27211900     -1.04718800
H       -2.65371400      0.49267200     -1.10223300
H       -4.19004400     -0.17150300      0.77904400
H       -2.90252000     -1.17872600      1.46066900
H       -2.71445800      0.58857200      1.39164700

