%chk=ethyl_propiolate.chk
%nprocshared=24
%mem=12GB
# ccsd(t)/6-311++g(d,p) sp

Title Card Required

0 2
 O                  4.49677400   -0.26774800    0.33270000
 H                  4.54288000    0.63463700   -0.01962300
 C                  2.20166900   -0.32438200   -0.06468700
 H                  3.51403100   -0.63826300   -0.03482600
 C                  1.04271500    0.01261800   -0.09395100
 C                 -0.36527900    0.38992700   -0.17717900
 O                 -0.75194700    1.51850000   -0.05072600
 O                 -1.13449400   -0.67025700   -0.41242400
 C                 -2.55341500   -0.41969500   -0.49768500
 C                 -3.16815100   -0.29736200    0.88255800
 H                 -2.94028400   -1.28241000   -1.03679800
 H                 -2.71348000    0.48236000   -1.08928600
 H                 -4.25004800   -0.18370800    0.79116800
 H                 -2.96295500   -1.19267500    1.47114200
 H                 -2.77381900    0.57458800    1.40461800

