%nprocshared=24
%mem=12GB
%chk=ethyl_propiolate_ts1.chk
# freq 6-311++g(d,p) m062x

Title Card Required

0 2
O        4.56037300     -0.24857000      0.32772100
H        4.59047400      0.63841300     -0.05191000
C        2.25305300     -0.30738400     -0.07294000
H        3.78296100     -0.69830200     -0.11511400
C        1.09604700      0.03071100     -0.10377000
C       -0.30854300      0.40321200     -0.19039600
O       -0.69366100      1.53206200     -0.06489100
O       -1.07470500     -0.65819200     -0.42312800
C       -2.49360600     -0.40889300     -0.50915600
C       -3.10831100     -0.28437700      0.87080400
H       -2.87974000     -1.27280600     -1.04678000
H       -2.65395300      0.49198900     -1.10247600
H       -4.19024500     -0.17166400      0.77900500
H       -2.90261600     -1.17846900      1.46104800
H       -2.71477200      0.58882700      1.39136000

