%nprocshared=24
%mem=12GB
%chk=ethyl_propiolate_ts1.chk
# freq 6-31+g m062x

Title Card Required

0 2
O        4.49777300     -0.26749600      0.33272400
H        4.54471200      0.63683200     -0.01768600
C        2.20299600     -0.32472200     -0.06490600
H        3.46089400     -0.63357100     -0.03432800
C        1.04371300      0.01198600     -0.09412200
C       -0.36478900      0.38997700     -0.17701600
O       -0.75196800      1.51849300     -0.05074500
O       -1.13444700     -0.67025400     -0.41241000
C       -2.55333400     -0.41967900     -0.49767600
C       -3.16815100     -0.29735800      0.88255500
H       -2.94025400     -1.28239500     -1.03678700
H       -2.71346900      0.48238500     -1.08925200
H       -4.25005900     -0.18370900      0.79117200
H       -2.96294000     -1.19266900      1.47114500
H       -2.77379100      0.57458700      1.40459900
