%chk=ethyl_propiolate.chk
%nprocshared=24
%mem=12GB
# irc=(calcfc,maxpoints=10,maxcycle=900,stepsize=5) 6-311++g(d,p) m062x

Title Card Required

0 2
 O                  4.50152000   -0.26584200    0.33860900
 H                  4.52857700    0.61789400   -0.04741200
 C                  2.19106500   -0.32227200   -0.06220000
 H                  3.76425300   -0.73506200   -0.12932400
 C                  1.03466100    0.01692500   -0.09248400
 C                 -0.36889500    0.39016300   -0.17845900
 O                 -0.75284300    1.51911300   -0.05060900
 O                 -1.13561400   -0.67044300   -0.41272600
 C                 -2.55421700   -0.41994000   -0.49781300
 C                 -3.16826400   -0.29736900    0.88260300
 H                 -2.94128900   -1.28257300   -1.03682100
 H                 -2.71409600    0.48213400   -1.08945700
 H                 -4.25014900   -0.18366500    0.79143500
 H                 -2.96301800   -1.19265900    1.47118800
 H                 -2.77383800    0.57460900    1.40453800

