%nprocshared=24
%mem=12GB
%chk=ethyl_propiolate_ts1.chk
# ccsd(t)/6-311++g(d,p) sp

Title Card Required

0 2
O        4.56189000     -0.24426900      0.33259600
H        4.58526200      0.63424000     -0.06430500
C        2.24924100     -0.30495900     -0.06992800
H        3.86761800     -0.73553400     -0.15758000
C        1.09274800      0.03259600     -0.10259900
C       -0.31053100      0.40345700     -0.19102500
O       -0.69587000      1.53234900     -0.06708100
O       -1.07553000     -0.65915900     -0.42207000
C       -2.49424500     -0.41079600     -0.50877700
C       -3.10913700     -0.28427600      0.87089800
H       -2.88004000     -1.27572100     -1.04503900
H       -2.65499700      0.48907400     -1.10354800
H       -4.19112400     -0.17225900      0.77882900
H       -2.90303200     -1.17728600      1.46264300
H       -2.71605100      0.58997500      1.39003400

