%chk=ethyl_propiolate.chk 
%nprocshared=24 
%mem=12GB 
# ccsd(t)/6-311++g(d,p) sp 

Title Card Required

0 2
 C                  2.91433700    1.31146500    0.31914900
 H                  3.67724800    2.03858800    0.47359500
 C                  2.05797900    0.49208700    0.14458200
 C                  1.05096300   -0.53054800   -0.09338000
 O                  1.27945700   -1.61087300   -0.55550200
 O                 -0.16399300   -0.10072800    0.27125600
 C                 -1.24391800   -1.02858600    0.04842100
 C                 -2.48651400   -0.38975400    0.59394600
 H                 -1.31885700   -1.22462300   -1.02306200
 H                 -1.00822000   -1.96967200    0.55471400
 H                 -2.42804600   -0.14877700    1.65410400
 H                 -2.59765700    0.73083800    0.00457300
 H                 -3.39294900   -0.93672100    0.34023200
 O                 -2.30418600    1.80026300   -0.58072300
 H                 -1.36614100    1.83393000   -0.33483400

