%chk=ethyl_propiolate.chk 
%nprocshared=24 
%mem=12GB 
# ccsd(t)/6-311++g(d,p) sp 

Title Card Required

0 2
 C                  2.91442500    1.31155500    0.31915200
 H                  3.67751300    2.03840400    0.47370500
 C                  2.05810400    0.49212300    0.14456600
 C                  1.05056800   -0.53051000   -0.09332600
 O                  1.27965300   -1.61076900   -0.55550700
 O                 -0.16391100   -0.10025200    0.27082600
 C                 -1.24409600   -1.03082900    0.04923800
 C                 -2.48944200   -0.39070300    0.59529800
 H                 -1.31814400   -1.22377900   -1.02288700
 H                 -1.00379700   -1.97001600    0.55282500
 H                 -2.42500400   -0.17824100    1.66194000
 H                 -2.64888900    0.61277400    0.06946000
 H                 -3.38162700   -0.97203300    0.36239200
 O                 -2.30031700    1.81375300   -0.58797500
 H                 -1.36153400    1.82804500   -0.33183100

