%chk=ethyl_propiolate.chk 
%nprocshared=24 
%mem=12GB 
# ccsd(t)/6-311++g(d,p) sp 

Title Card Required

0 2
 C                  2.91437600    1.31153800    0.31914600
 H                  3.67728000    2.03862100    0.47363400
 C                  2.05804900    0.49211900    0.14457400
 C                  1.05073000   -0.53053600   -0.09333700
 O                  1.27957700   -1.61081600   -0.55549800
 O                 -0.16393100   -0.10047600    0.27102600
 C                 -1.24398200   -1.03002900    0.04898500
 C                 -2.48811200   -0.38847900    0.59381000
 H                 -1.31837600   -1.22415400   -1.02288300
 H                 -1.00564800   -1.96973100    0.55369900
 H                 -2.42656900   -0.16641000    1.65844600
 H                 -2.62720300    0.64466800    0.05099500
 H                 -3.38645200   -0.95584500    0.35245300
 O                 -2.30205600    1.80791600   -0.58487600
 H                 -1.36310200    1.83045300   -0.33290500

