%chk=ethyl_propiolate.chk 
%nprocshared=24 
%mem=12GB 
# ccsd(t)/6-311++g(d,p) sp 

Title Card Required

0 2
 C                  2.91432500    1.31144300    0.31914800
 H                  3.67722800    2.03859400    0.47357700
 C                  2.05795800    0.49207700    0.14458400
 C                  1.05104500   -0.53054700   -0.09339300
 O                  1.27941600   -1.61089100   -0.55550100
 O                 -0.16400200   -0.10079400    0.27132700
 C                 -1.24394800   -1.02800000    0.04819500
 C                 -2.48596100   -0.39163200    0.59473100
 H                 -1.31896800   -1.22487400   -1.02316500
 H                 -1.00904000   -1.96972200    0.55506300
 H                 -2.42852700   -0.14193000    1.65264100
 H                 -2.58736900    0.77695600   -0.02047400
 H                 -3.39533900   -0.93045500    0.33597600
 O                 -2.30488600    1.79751000   -0.57920600
 H                 -1.36751700    1.83581600   -0.33606000

