%chk=ethyl_propiolate.chk 
%nprocshared=24 
%mem=12GB 
# ccsd(t)/6-311++g(d,p) sp 

Title Card Required

0 2
 C                  2.91454800    1.31163800    0.31916500
 H                  3.67788000    2.03818300    0.47383000
 C                  2.05823600    0.49217100    0.14455400
 C                  1.05021800   -0.53031400   -0.09334100
 O                  1.27984000   -1.61057200   -0.55545600
 O                 -0.16412000   -0.09948700    0.27017500
 C                 -1.24437000   -1.03224700    0.04954700
 C                 -2.49402300   -0.40265700    0.60244600
 H                 -1.31824000   -1.22282600   -1.02302400
 H                 -0.99881000   -1.97087300    0.55025800
 H                 -2.41952600   -0.20510200    1.67157900
 H                 -2.70492800    0.56344000    0.09752800
 H                 -3.36760900   -1.02115100    0.39226300
 O                 -2.29483000    1.83093000   -0.59716900
 H                 -1.35829600    1.81949100   -0.32927400

